       3
Lattice="15.0 0.0 0.0 0.0 15.0 0.0 0.0 0.0 15.0" Properties=species:S:1:pos:R:3:forces:R:3 energy=        1.2506500872 pbc="T T T"
       O     0.0000000000     0.0000000000     0.0000000000      1.811921222     -1.953330420     -0.000000000
       H     1.0684200000     0.0000000000     0.0000000000     -4.827002769      1.717255473     -0.000000000
       H    -0.8332800000     0.5432800000     0.0000000000      3.015081547      0.236074998     -0.000000000
