       3
Lattice="15.0 0.0 0.0 0.0 15.0 0.0 0.0 0.0 15.0" Properties=species:S:1:pos:R:3:forces:R:3 energy=        3.9456496312 pbc="T T T"
       O     0.0000000000     0.0000000000     0.0000000000      0.103067398      0.183804447     -0.000000000
       H     1.3631600000     0.0000000000     0.0000000000     -5.860460847      1.686939633     -0.000000000
       H    -0.9810100000     0.7181700000     0.0000000000      5.757393500     -1.870744079     -0.000000000
