       3
Lattice="15.0 0.0 0.0 0.0 15.0 0.0 0.0 0.0 15.0" Properties=species:S:1:pos:R:3:forces:R:3 energy=        1.4647592452 pbc="T T T"
       O     0.0000000000     0.0000000000     0.0000000000     -1.270221309     -0.857990848     -0.000000000
       H     1.0315800000     0.0000000000     0.0000000000     -3.762200358      1.779509880     -0.000000000
       H    -0.9252800000     0.5342100000     0.0000000000      5.032421668     -0.921519032     -0.000000000
