       3
Lattice="15.0 0.0 0.0 0.0 15.0 0.0 0.0 0.0 15.0" Properties=species:S:1:pos:R:3:forces:R:3 energy=        3.4364556101 pbc="T T T"
       O     0.0000000000     0.0000000000     0.0000000000     -0.803158448     -0.046563883     -0.000000000
       H     1.1421100000     0.0000000000     0.0000000000     -5.329658971      1.994613409     -0.000000000
       H    -1.1110400000     0.7243700000     0.0000000000      6.132817368     -1.948049577     -0.000000000
