       3
Lattice="15.0 0.0 0.0 0.0 15.0 0.0 0.0 0.0 15.0" Properties=species:S:1:pos:R:3:forces:R:3 energy=        2.5143916675 pbc="T T T"
       O     0.0000000000     0.0000000000     0.0000000000      0.308232066     -0.276967282     -0.000000000
       H     1.1789500000     0.0000000000     0.0000000000     -6.057932616      1.803394514     -0.000000000
       H    -0.9567300000     0.6237700000     0.0000000000      5.749700550     -1.526427232     -0.000000000
