       3
Lattice="15.0 0.0 0.0 0.0 15.0 0.0 0.0 0.0 15.0" Properties=species:S:1:pos:R:3:forces:R:3 energy=        3.6202492378 pbc="T T T"
       O     0.0000000000     0.0000000000     0.0000000000     16.643087875    -10.839277251     -0.000000000
       H     1.3263200000     0.0000000000     0.0000000000     -6.898199247      1.518869728     -0.000000000
       H    -0.6789700000     0.4426700000     0.0000000000     -9.744888628      9.320407523     -0.000000000
