       3
Lattice="15.0 0.0 0.0 0.0 15.0 0.0 0.0 0.0 15.0" Properties=species:S:1:pos:R:3:forces:R:3 energy=        4.1578774130 pbc="T T T"
       O     0.0000000000     0.0000000000     0.0000000000      0.144766392      0.111318072     -0.000000000
       H     1.2157900000     0.0000000000     0.0000000000     -5.682513068      1.898950894     -0.000000000
       H    -1.1296400000     0.8269800000     0.0000000000      5.537746676     -2.010268966     -0.000000000
