       3
Lattice="15.0 0.0 0.0 0.0 15.0 0.0 0.0 0.0 15.0" Properties=species:S:1:pos:R:3:forces:R:3 energy=        2.1845461718 pbc="T T T"
       O     0.0000000000     0.0000000000     0.0000000000      5.320744027     -3.155763431     -0.000000000
       H     1.2157900000     0.0000000000     0.0000000000     -6.720724654      1.607745299     -0.000000000
       H    -0.8295600000     0.4789400000     0.0000000000      1.399980628      1.548018133     -0.000000000
