       3
Lattice="15.0 0.0 0.0 0.0 15.0 0.0 0.0 0.0 15.0" Properties=species:S:1:pos:R:3:forces:R:3 energy=        2.8466906452 pbc="T T T"
       O     0.0000000000     0.0000000000     0.0000000000     -2.136211223      0.069059555     -0.000000000
       H     1.0684200000     0.0000000000     0.0000000000     -4.198986717      2.041788855     -0.000000000
       H    -1.0801700000     0.7042500000     0.0000000000      6.335197889     -2.110848358     -0.000000000
