       3
Lattice="15.0 0.0 0.0 0.0 15.0 0.0 0.0 0.0 15.0" Properties=species:S:1:pos:R:3:forces:R:3 energy=        2.2335722810 pbc="T T T"
       O     0.0000000000     0.0000000000     0.0000000000     -4.427145851     -0.102174197     -0.000000000
       H     0.9947400000     0.0000000000     0.0000000000     -2.143963000      2.003316803     -0.000000000
       H    -1.0529100000     0.6078900000     0.0000000000      6.571108851     -1.901142555     -0.000000000
