       3
Lattice="15.0 0.0 0.0 0.0 15.0 0.0 0.0 0.0 15.0" Properties=species:S:1:pos:R:3:forces:R:3 energy=        3.1453052658 pbc="T T T"
       O     0.0000000000     0.0000000000     0.0000000000    -30.817177540     -0.936731537     -0.000000000
       H     0.7368400000     0.0000000000     0.0000000000     26.365106683      2.072333163     -0.000000000
       H    -0.8641400000     0.5634000000     0.0000000000      4.452070908     -1.135601627     -0.000000000
