       3
Lattice="15.0 0.0 0.0 0.0 15.0 0.0 0.0 0.0 15.0" Properties=species:S:1:pos:R:3:forces:R:3 energy=        3.9422329097 pbc="T T T"
       O     0.0000000000     0.0000000000     0.0000000000      0.097188208      0.297901420     -0.000000000
       H     1.2894700000     0.0000000000     0.0000000000     -5.961444879      1.784084132     -0.000000000
       H    -1.0404600000     0.7616900000     0.0000000000      5.864256620     -2.081985552     -0.000000000
