       3
Lattice="15.0 0.0 0.0 0.0 15.0 0.0 0.0 0.0 15.0" Properties=species:S:1:pos:R:3:forces:R:3 energy=        1.0646542339 pbc="T T T"
       O     0.0000000000     0.0000000000     0.0000000000     -0.508043488     -1.892150632     -0.000000000
       H     0.9947400000     0.0000000000     0.0000000000     -2.605148265      1.712327386     -0.000000000
       H    -0.8614700000     0.4973700000     0.0000000000      3.113191753      0.179823246     -0.000000000
