       3
Lattice="15.0 0.0 0.0 0.0 15.0 0.0 0.0 0.0 15.0" Properties=species:S:1:pos:R:3:forces:R:3 energy=        4.3676602083 pbc="T T T"
       O     0.0000000000     0.0000000000     0.0000000000     29.047931868    -16.826457753     -0.000000000
       H     1.2157900000     0.0000000000     0.0000000000     -7.154974876      1.441006300     -0.000000000
       H    -0.6381200000     0.3684200000     0.0000000000    -21.892956993     15.385451453     -0.000000000
