       3
Lattice="15.0 0.0 0.0 0.0 15.0 0.0 0.0 0.0 15.0" Properties=species:S:1:pos:R:3:forces:R:3 energy=        0.9988446261 pbc="T T T"
       O     0.0000000000     0.0000000000     0.0000000000      1.039925742     -2.726096409     -0.000000000
       H     0.9947400000     0.0000000000     0.0000000000     -2.677672435      1.669595425     -0.000000000
       H    -0.8295600000     0.4789400000     0.0000000000      1.637746693      1.056500983     -0.000000000
