       3
Lattice="15.0 0.0 0.0 0.0 15.0 0.0 0.0 0.0 15.0" Properties=species:S:1:pos:R:3:forces:R:3 energy=        3.0023960109 pbc="T T T"
       O     0.0000000000     0.0000000000     0.0000000000     23.127954635    -16.178293911     -0.000000000
       H     0.9578900000     0.0000000000     0.0000000000     -1.412246287      1.455624726     -0.000000000
       H    -0.6381200000     0.3684200000     0.0000000000    -21.715708297     14.722669134     -0.000000000
