       3
Lattice="15.0 0.0 0.0 0.0 15.0 0.0 0.0 0.0 15.0" Properties=species:S:1:pos:R:3:forces:R:3 energy=        2.6621394770 pbc="T T T"
       O     0.0000000000     0.0000000000     0.0000000000      1.202000603     -0.378060072     -0.000000000
       H     1.2526300000     0.0000000000     0.0000000000     -6.344409282      1.722836775     -0.000000000
       H    -0.8918200000     0.6528800000     0.0000000000      5.142408679     -1.344776703     -0.000000000
