       3
Lattice="15.0 0.0 0.0 0.0 15.0 0.0 0.0 0.0 15.0" Properties=species:S:1:pos:R:3:forces:R:3 energy=        3.9786108048 pbc="T T T"
       O     0.0000000000     0.0000000000     0.0000000000     -0.270898859     -0.421143143     -0.000000000
       H     1.2157900000     0.0000000000     0.0000000000     -5.890008390      1.932569061     -0.000000000
       H    -1.1486300000     0.6631600000     0.0000000000      6.160907249     -1.511425867     -0.000000000
