       3
Lattice="15.0 0.0 0.0 0.0 15.0 0.0 0.0 0.0 15.0" Properties=species:S:1:pos:R:3:forces:R:3 energy=        2.2080130316 pbc="T T T"
       O     0.0000000000     0.0000000000     0.0000000000    -14.725984675      0.186239591     -0.000000000
       H     0.8473700000     0.0000000000     0.0000000000      8.286882494      2.159254232     -0.000000000
       H    -0.9875900000     0.6438900000     0.0000000000      6.439102182     -2.345493823     -0.000000000
