       3
Lattice="15.0 0.0 0.0 0.0 15.0 0.0 0.0 0.0 15.0" Properties=species:S:1:pos:R:3:forces:R:3 energy=        1.6971167370 pbc="T T T"
       O     0.0000000000     0.0000000000     0.0000000000      6.023115440     -9.201664615     -0.000000000
       H     0.8842100000     0.0000000000     0.0000000000      3.815090598      1.558481293     -0.000000000
       H    -0.7019400000     0.4052600000     0.0000000000     -9.838206038      7.643183322     -0.000000000
