       3
Lattice="15.0 0.0 0.0 0.0 15.0 0.0 0.0 0.0 15.0" Properties=species:S:1:pos:R:3:forces:R:3 energy=        3.7221200383 pbc="T T T"
       O     0.0000000000     0.0000000000     0.0000000000      0.135191188      0.285926501     -0.000000000
       H     1.2894700000     0.0000000000     0.0000000000     -6.031748540      1.771169989     -0.000000000
       H    -1.0107300000     0.7399300000     0.0000000000      5.896557352     -2.057096490     -0.000000000
