       3
Lattice="15.0 0.0 0.0 0.0 15.0 0.0 0.0 0.0 15.0" Properties=species:S:1:pos:R:3:forces:R:3 energy=        4.3691188366 pbc="T T T"
       O     0.0000000000     0.0000000000     0.0000000000      0.280104955      0.117278715     -0.000000000
       H     1.2526300000     0.0000000000     0.0000000000     -5.768114080      1.849492770     -0.000000000
       H    -1.1296400000     0.8269800000     0.0000000000      5.488009176     -1.966771434     -0.000000000
