       3
Lattice="15.0 0.0 0.0 0.0 15.0 0.0 0.0 0.0 15.0" Properties=species:S:1:pos:R:3:forces:R:3 energy=        4.0690599253 pbc="T T T"
       O     0.0000000000     0.0000000000     0.0000000000     -0.040459670     -0.101164215     -0.000000000
       H     1.2526300000     0.0000000000     0.0000000000     -5.928331472      1.876747094     -0.000000000
       H    -1.1110400000     0.7243700000     0.0000000000      5.968791193     -1.775582827     -0.000000000
