       3
Lattice="15.0 0.0 0.0 0.0 15.0 0.0 0.0 0.0 15.0" Properties=species:S:1:pos:R:3:forces:R:3 energy=        1.6078954486 pbc="T T T"
       O     0.0000000000     0.0000000000     0.0000000000    -10.253346372     -0.379226274     -0.000000000
       H     0.8842100000     0.0000000000     0.0000000000      4.419550860      1.947940511     -0.000000000
       H    -0.9571800000     0.5526300000     0.0000000000      5.833795461     -1.568714237     -0.000000000
