       3
Lattice="15.0 0.0 0.0 0.0 15.0 0.0 0.0 0.0 15.0" Properties=species:S:1:pos:R:3:forces:R:3 energy=        1.3400761685 pbc="T T T"
       O     0.0000000000     0.0000000000     0.0000000000      2.526281747     -1.910342223     -0.000000000
       H     1.1052600000     0.0000000000     0.0000000000     -5.476792630      1.712373409     -0.000000000
       H    -0.8026400000     0.5876000000     0.0000000000      2.950510883      0.197968815     -0.000000000
