       3
Lattice="15.0 0.0 0.0 0.0 15.0 0.0 0.0 0.0 15.0" Properties=species:S:1:pos:R:3:forces:R:3 energy=        4.0644296958 pbc="T T T"
       O     0.0000000000     0.0000000000     0.0000000000    -38.014471817     -2.445476204     -0.000000000
       H     0.7000000000     0.0000000000     0.0000000000     36.022736811      1.999621097     -0.000000000
       H    -0.8024100000     0.5231500000     0.0000000000      1.991735006      0.445855107     -0.000000000
