       3
Lattice="15.0 0.0 0.0 0.0 15.0 0.0 0.0 0.0 15.0" Properties=species:S:1:pos:R:3:forces:R:3 energy=        3.7118069529 pbc="T T T"
       O     0.0000000000     0.0000000000     0.0000000000    -14.949646999     -0.302343517     -0.000000000
       H     0.8473700000     0.0000000000     0.0000000000      8.719220328      2.533709667     -0.000000000
       H    -1.1727600000     0.7646100000     0.0000000000      6.230426671     -2.231366151     -0.000000000
