       3
Lattice="15.0 0.0 0.0 0.0 15.0 0.0 0.0 0.0 15.0" Properties=species:S:1:pos:R:3:forces:R:3 energy=        3.0022779706 pbc="T T T"
       O     0.0000000000     0.0000000000     0.0000000000     16.162863376    -11.195758044     -0.000000000
       H     1.2526300000     0.0000000000     0.0000000000     -6.936002915      1.523361242     -0.000000000
       H    -0.6540100000     0.4787800000     0.0000000000     -9.226860461      9.672396803     -0.000000000
