       3
Lattice="15.0 0.0 0.0 0.0 15.0 0.0 0.0 0.0 15.0" Properties=species:S:1:pos:R:3:forces:R:3 energy=        4.7928609721 pbc="T T T"
       O     0.0000000000     0.0000000000     0.0000000000      0.293863295      0.140922642     -0.000000000
       H     1.3263200000     0.0000000000     0.0000000000     -5.682339107      1.749609016     -0.000000000
       H    -1.1296400000     0.8269800000     0.0000000000      5.388475760     -1.890531710     -0.000000000
