       3
Lattice="15.0 0.0 0.0 0.0 15.0 0.0 0.0 0.0 15.0" Properties=species:S:1:pos:R:3:forces:R:3 energy=        4.2862339943 pbc="T T T"
       O     0.0000000000     0.0000000000     0.0000000000     -0.126836487     -0.126607967     -0.000000000
       H     1.3631600000     0.0000000000     0.0000000000     -5.810317061      1.738730777     -0.000000000
       H    -1.0493100000     0.6841300000     0.0000000000      5.937153548     -1.612122809     -0.000000000
