       3
Lattice="15.0 0.0 0.0 0.0 15.0 0.0 0.0 0.0 15.0" Properties=species:S:1:pos:R:3:forces:R:3 energy=        4.0509763403 pbc="T T T"
       O     0.0000000000     0.0000000000     0.0000000000    -36.092692396     -3.587823123     -0.000000000
       H     0.7000000000     0.0000000000     0.0000000000     35.945342815      1.931504984     -0.000000000
       H    -0.7715500000     0.5030300000     0.0000000000      0.147349529      1.656318140     -0.000000000
