       3
Lattice="15.0 0.0 0.0 0.0 15.0 0.0 0.0 0.0 15.0" Properties=species:S:1:pos:R:3:forces:R:3 energy=        2.6243054244 pbc="T T T"
       O     0.0000000000     0.0000000000     0.0000000000     -0.523256044      0.342161645     -0.000000000
       H     1.1421100000     0.0000000000     0.0000000000     -5.520053878      1.886120363     -0.000000000
       H    -0.9810100000     0.7181700000     0.0000000000      6.043309922     -2.228282008     -0.000000000
