       3
Lattice="15.0 0.0 0.0 0.0 15.0 0.0 0.0 0.0 15.0" Properties=species:S:1:pos:R:3:forces:R:3 energy=        3.3665194691 pbc="T T T"
       O     0.0000000000     0.0000000000     0.0000000000     -3.215614422    -11.982244166     -0.000000000
       H     0.7736800000     0.0000000000     0.0000000000     18.088818939      1.575740706     -0.000000000
       H    -0.6700300000     0.3868400000     0.0000000000    -14.873204518     10.406503460     -0.000000000
