       3
Lattice="15.0 0.0 0.0 0.0 15.0 0.0 0.0 0.0 15.0" Properties=species:S:1:pos:R:3:forces:R:3 energy=        4.7689055155 pbc="T T T"
       O     0.0000000000     0.0000000000     0.0000000000     36.469000003    -21.462120941     -0.000000000
       H     1.1052600000     0.0000000000     0.0000000000     -6.182150536      1.408353943     -0.000000000
       H    -0.6062200000     0.3500000000     0.0000000000    -30.286849519     20.053766946     -0.000000000
