       3
Lattice="15.0 0.0 0.0 0.0 15.0 0.0 0.0 0.0 15.0" Properties=species:S:1:pos:R:3:forces:R:3 energy=        2.4923644233 pbc="T T T"
       O     0.0000000000     0.0000000000     0.0000000000     -1.952921974      0.430083130     -0.000000000
       H     1.0684200000     0.0000000000     0.0000000000     -4.232313475      1.992133013     -0.000000000
       H    -1.0107300000     0.7399300000     0.0000000000      6.185235450     -2.422216143     -0.000000000
