       3
Lattice="15.0 0.0 0.0 0.0 15.0 0.0 0.0 0.0 15.0" Properties=species:S:1:pos:R:3:forces:R:3 energy=        4.1234693474 pbc="T T T"
       O     0.0000000000     0.0000000000     0.0000000000    -35.999346754     -3.487325492     -0.000000000
       H     0.7000000000     0.0000000000     0.0000000000     35.900269813      1.887818989     -0.000000000
       H    -0.7976500000     0.4605200000     0.0000000000      0.099076941      1.599506555     -0.000000000
