       3
Lattice="15.0 0.0 0.0 0.0 15.0 0.0 0.0 0.0 15.0" Properties=species:S:1:pos:R:3:forces:R:3 energy=        1.3135985402 pbc="T T T"
       O     0.0000000000     0.0000000000     0.0000000000     -9.507054737     -0.529598136     -0.000000000
       H     0.8842100000     0.0000000000     0.0000000000      4.403965443      1.940043621     -0.000000000
       H    -0.8950000000     0.5835200000     0.0000000000      5.103089294     -1.410445485     -0.000000000
