       3
Lattice="15.0 0.0 0.0 0.0 15.0 0.0 0.0 0.0 15.0" Properties=species:S:1:pos:R:3:forces:R:3 energy=        3.1928702026 pbc="T T T"
       O     0.0000000000     0.0000000000     0.0000000000     -1.920851870      0.229022511     -0.000000000
       H     1.0684200000     0.0000000000     0.0000000000     -4.005204072      2.084485077     -0.000000000
       H    -1.0999200000     0.8052200000     0.0000000000      5.926055890     -2.313507536     -0.000000000
