       3
Lattice="15.0 0.0 0.0 0.0 15.0 0.0 0.0 0.0 15.0" Properties=species:S:1:pos:R:3:forces:R:3 energy=        2.4832821933 pbc="T T T"
       O     0.0000000000     0.0000000000     0.0000000000      1.683696905     -1.172350267     -0.000000000
       H     1.2157900000     0.0000000000     0.0000000000     -6.476380984      1.702444112     -0.000000000
       H    -0.9252800000     0.5342100000     0.0000000000      4.792684080     -0.530093845     -0.000000000
