       3
Lattice="15.0 0.0 0.0 0.0 15.0 0.0 0.0 0.0 15.0" Properties=species:S:1:pos:R:3:forces:R:3 energy=        3.9517757360 pbc="T T T"
       O     0.0000000000     0.0000000000     0.0000000000     -0.102571124      0.107721714     -0.000000000
       H     1.1789500000     0.0000000000     0.0000000000     -5.485091589      1.948894597     -0.000000000
       H    -1.1296400000     0.8269800000     0.0000000000      5.587662713     -2.056616311     -0.000000000
