       3
Lattice="15.0 0.0 0.0 0.0 15.0 0.0 0.0 0.0 15.0" Properties=species:S:1:pos:R:3:forces:R:3 energy=        4.0142572225 pbc="T T T"
       O     0.0000000000     0.0000000000     0.0000000000    -33.199985544      0.169931282     -0.000000000
       H     0.7368400000     0.0000000000     0.0000000000     26.633186532      2.354675905     -0.000000000
       H    -0.9875900000     0.6438900000     0.0000000000      6.566799012     -2.524607187     -0.000000000
