       3
Lattice="15.0 0.0 0.0 0.0 15.0 0.0 0.0 0.0 15.0" Properties=species:S:1:pos:R:3:forces:R:3 energy=        4.6323819212 pbc="T T T"
       O     0.0000000000     0.0000000000     0.0000000000     -0.259941995     -0.483368857     -0.000000000
       H     1.3631600000     0.0000000000     0.0000000000     -5.761243163      1.783086029     -0.000000000
       H    -1.1167100000     0.6447300000     0.0000000000      6.021185158     -1.299717173     -0.000000000
