       3
Lattice="15.0 0.0 0.0 0.0 15.0 0.0 0.0 0.0 15.0" Properties=species:S:1:pos:R:3:forces:R:3 energy=        4.7449846936 pbc="T T T"
       O     0.0000000000     0.0000000000     0.0000000000    -26.067071052     -8.926378064     -0.000000000
       H     0.7000000000     0.0000000000     0.0000000000     35.647717738      1.699879384     -0.000000000
       H    -0.7019400000     0.4052600000     0.0000000000     -9.580646737      7.226498629     -0.000000000
