       3
Lattice="15.0 0.0 0.0 0.0 15.0 0.0 0.0 0.0 15.0" Properties=species:S:1:pos:R:3:forces:R:3 energy=        2.9531167323 pbc="T T T"
       O     0.0000000000     0.0000000000     0.0000000000      0.205672409     -0.154074921     -0.000000000
       H     1.2157900000     0.0000000000     0.0000000000     -6.165537705      1.810700153     -0.000000000
       H    -0.9875900000     0.6438900000     0.0000000000      5.959865296     -1.656625232     -0.000000000
