       3
Lattice="15.0 0.0 0.0 0.0 15.0 0.0 0.0 0.0 15.0" Properties=species:S:1:pos:R:3:forces:R:3 energy=        2.0776471235 pbc="T T T"
       O     0.0000000000     0.0000000000     0.0000000000      5.189353343     -3.160796471     -0.000000000
       H     1.2157900000     0.0000000000     0.0000000000     -6.644156960      1.633800048     -0.000000000
       H    -0.8024100000     0.5231500000     0.0000000000      1.454803566      1.526996475     -0.000000000
