       3
Lattice="15.0 0.0 0.0 0.0 15.0 0.0 0.0 0.0 15.0" Properties=species:S:1:pos:R:3:forces:R:3 energy=        0.9352577532 pbc="T T T"
       O     0.0000000000     0.0000000000     0.0000000000     -0.994289154     -3.705890910     -0.000000000
       H     0.9210500000     0.0000000000     0.0000000000      1.191130385      1.667163881     -0.000000000
       H    -0.7976500000     0.4605200000     0.0000000000     -0.196841231      2.038727029     -0.000000000
