       3
Lattice="15.0 0.0 0.0 0.0 15.0 0.0 0.0 0.0 15.0" Properties=species:S:1:pos:R:3:forces:R:3 energy=        4.7969360649 pbc="T T T"
       O     0.0000000000     0.0000000000     0.0000000000      0.074818675      0.229160682     -0.000000000
       H     1.3631600000     0.0000000000     0.0000000000     -5.600089066      1.703964046     -0.000000000
       H    -1.0999200000     0.8052200000     0.0000000000      5.525270392     -1.933124728     -0.000000000
