       3
Lattice="15.0 0.0 0.0 0.0 15.0 0.0 0.0 0.0 15.0" Properties=species:S:1:pos:R:3:forces:R:3 energy=        0.9341535288 pbc="T T T"
       O     0.0000000000     0.0000000000     0.0000000000     -2.984320443     -2.620510357     -0.000000000
       H     0.9210500000     0.0000000000     0.0000000000      1.264811500      1.712210144     -0.000000000
       H    -0.8295600000     0.4789400000     0.0000000000      1.719508943      0.908300213     -0.000000000
