       3
Lattice="15.0 0.0 0.0 0.0 15.0 0.0 0.0 0.0 15.0" Properties=species:S:1:pos:R:3:forces:R:3 energy=        2.1895424680 pbc="T T T"
       O     0.0000000000     0.0000000000     0.0000000000     -2.882074873     -9.685028278     -0.000000000
       H     0.8105300000     0.0000000000     0.0000000000     12.234482463      1.635322861     -0.000000000
       H    -0.6789700000     0.4426700000     0.0000000000     -9.352407591      8.049705417     -0.000000000
