       3
Lattice="15.0 0.0 0.0 0.0 15.0 0.0 0.0 0.0 15.0" Properties=species:S:1:pos:R:3:forces:R:3 energy=        4.6936767409 pbc="T T T"
       O     0.0000000000     0.0000000000     0.0000000000     27.195967701    -19.427063494     -0.000000000
       H     1.2894700000     0.0000000000     0.0000000000     -7.049391138      1.476397912     -0.000000000
       H    -0.5945500000     0.4352500000     0.0000000000    -20.146576564     17.950665634     -0.000000000
