       3
Lattice="15.0 0.0 0.0 0.0 15.0 0.0 0.0 0.0 15.0" Properties=species:S:1:pos:R:3:forces:R:3 energy=        3.4704160185 pbc="T T T"
       O     0.0000000000     0.0000000000     0.0000000000    -15.066762346     -0.125519567     -0.000000000
       H     0.8473700000     0.0000000000     0.0000000000      8.645864715      2.475091316     -0.000000000
       H    -1.1419000000     0.7444900000     0.0000000000      6.420897631     -2.349571749     -0.000000000
