       3
Lattice="15.0 0.0 0.0 0.0 15.0 0.0 0.0 0.0 15.0" Properties=species:S:1:pos:R:3:forces:R:3 energy=        1.5517595239 pbc="T T T"
       O     0.0000000000     0.0000000000     0.0000000000      3.062526136     -1.972740304     -0.000000000
       H     1.1421100000     0.0000000000     0.0000000000     -5.979365528      1.695505884     -0.000000000
       H    -0.8026400000     0.5876000000     0.0000000000      2.916839392      0.277234420     -0.000000000
