       3
Lattice="15.0 0.0 0.0 0.0 15.0 0.0 0.0 0.0 15.0" Properties=species:S:1:pos:R:3:forces:R:3 energy=        2.8541595665 pbc="T T T"
       O     0.0000000000     0.0000000000     0.0000000000      0.744190169     -0.074905321     -0.000000000
       H     1.2526300000     0.0000000000     0.0000000000     -6.268118341      1.745821574     -0.000000000
       H    -0.9215600000     0.6746500000     0.0000000000      5.523928121     -1.670916305     -0.000000000
