       3
Lattice="15.0 0.0 0.0 0.0 15.0 0.0 0.0 0.0 15.0" Properties=species:S:1:pos:R:3:forces:R:3 energy=        1.3869537211 pbc="T T T"
       O     0.0000000000     0.0000000000     0.0000000000      4.056280192     -2.940813603     -0.000000000
       H     1.1052600000     0.0000000000     0.0000000000     -5.617618239      1.665147672     -0.000000000
       H    -0.8024100000     0.5231500000     0.0000000000      1.561337996      1.275665931     -0.000000000
