       3
Lattice="15.0 0.0 0.0 0.0 15.0 0.0 0.0 0.0 15.0" Properties=species:S:1:pos:R:3:forces:R:3 energy=        4.3959575980 pbc="T T T"
       O     0.0000000000     0.0000000000     0.0000000000     22.836662599    -20.839836240     -0.000000000
       H     0.8473700000     0.0000000000     0.0000000000      7.224751512      1.452975460     -0.000000000
       H    -0.6062200000     0.3500000000     0.0000000000    -30.061414110     19.386860832     -0.000000000
