       3
Lattice="15.0 0.0 0.0 0.0 15.0 0.0 0.0 0.0 15.0" Properties=species:S:1:pos:R:3:forces:R:3 energy=        5.5633049904 pbc="T T T"
       O     0.0000000000     0.0000000000     0.0000000000     27.739855367    -18.587185048     -0.000000000
       H     1.4000000000     0.0000000000     0.0000000000     -6.644738390      1.478974313     -0.000000000
       H    -0.6172400000     0.4024300000     0.0000000000    -21.095117028     17.108210735     -0.000000000
