       3
Lattice="15.0 0.0 0.0 0.0 15.0 0.0 0.0 0.0 15.0" Properties=species:S:1:pos:R:3:forces:R:3 energy=        5.0753594236 pbc="T T T"
       O     0.0000000000     0.0000000000     0.0000000000     34.833320067    -24.974110472     -0.000000000
       H     1.1789500000     0.0000000000     0.0000000000     -6.859851483      1.456113801     -0.000000000
       H    -0.5648200000     0.4134900000     0.0000000000    -27.973468533     23.517996671     -0.000000000
