       3
Lattice="15.0 0.0 0.0 0.0 15.0 0.0 0.0 0.0 15.0" Properties=species:S:1:pos:R:3:forces:R:3 energy=        3.3290335427 pbc="T T T"
       O     0.0000000000     0.0000000000     0.0000000000      6.837315136     -4.778067351     -0.000000000
       H     1.4000000000     0.0000000000     0.0000000000     -6.285088659      1.569722727     -0.000000000
       H    -0.7715500000     0.5030300000     0.0000000000     -0.552226477      3.208344624     -0.000000000
