       3
Lattice="15.0 0.0 0.0 0.0 15.0 0.0 0.0 0.0 15.0" Properties=species:S:1:pos:R:3:forces:R:3 energy=        2.9762999243 pbc="T T T"
       O     0.0000000000     0.0000000000     0.0000000000    -11.424658684      0.032124664     -0.000000000
       H     0.8842100000     0.0000000000     0.0000000000      4.912911851      2.346183342     -0.000000000
       H    -1.1110400000     0.7243700000     0.0000000000      6.511746833     -2.378307954     -0.000000000
