       3
Lattice="15.0 0.0 0.0 0.0 15.0 0.0 0.0 0.0 15.0" Properties=species:S:1:pos:R:3:forces:R:3 energy=        4.2143227284 pbc="T T T"
       O     0.0000000000     0.0000000000     0.0000000000    -25.899533880     -0.019378054     -0.000000000
       H     0.7736800000     0.0000000000     0.0000000000     19.242583979      2.569943881     -0.000000000
       H    -1.1110400000     0.7243700000     0.0000000000      6.656949901     -2.550565828     -0.000000000
