       3
Lattice="15.0 0.0 0.0 0.0 15.0 0.0 0.0 0.0 15.0" Properties=species:S:1:pos:R:3:forces:R:3 energy=        3.0931875758 pbc="T T T"
       O     0.0000000000     0.0000000000     0.0000000000     -8.454837779     -0.105247900     -0.000000000
       H     0.9210500000     0.0000000000     0.0000000000      2.138630324      2.337689184     -0.000000000
       H    -1.1419000000     0.7444900000     0.0000000000      6.316207455     -2.232441284     -0.000000000
