       3
Lattice="15.0 0.0 0.0 0.0 15.0 0.0 0.0 0.0 15.0" Properties=species:S:1:pos:R:3:forces:R:3 energy=        0.9162525756 pbc="T T T"
       O     0.0000000000     0.0000000000     0.0000000000      2.867817225     -3.945624539     -0.000000000
       H     0.9947400000     0.0000000000     0.0000000000     -2.684793623      1.671401781     -0.000000000
       H    -0.7715500000     0.5030300000     0.0000000000     -0.183023602      2.274222758     -0.000000000
