       3
Lattice="15.0 0.0 0.0 0.0 15.0 0.0 0.0 0.0 15.0" Properties=species:S:1:pos:R:3:forces:R:3 energy=        1.7471700624 pbc="T T T"
       O     0.0000000000     0.0000000000     0.0000000000    -17.071367272     -0.963261940     -0.000000000
       H     0.8105300000     0.0000000000     0.0000000000     12.703453855      1.966522088     -0.000000000
       H    -0.8641400000     0.5634000000     0.0000000000      4.367913417     -1.003260199     -0.000000000
