       3
Lattice="15.0 0.0 0.0 0.0 15.0 0.0 0.0 0.0 15.0" Properties=species:S:1:pos:R:3:forces:R:3 energy=        1.3640788423 pbc="T T T"
       O     0.0000000000     0.0000000000     0.0000000000      0.659053190     -1.259218988     -0.000000000
       H     1.0684200000     0.0000000000     0.0000000000     -4.752133701      1.756314457     -0.000000000
       H    -0.8641400000     0.5634000000     0.0000000000      4.093080511     -0.497095469     -0.000000000
