       3
Lattice="15.0 0.0 0.0 0.0 15.0 0.0 0.0 0.0 15.0" Properties=species:S:1:pos:R:3:forces:R:3 energy=        4.1034868457 pbc="T T T"
       O     0.0000000000     0.0000000000     0.0000000000      2.661945349    -17.010300972     -0.000000000
       H     0.7736800000     0.0000000000     0.0000000000     18.063316875      1.552189132     -0.000000000
       H    -0.6172400000     0.4024300000     0.0000000000    -20.725262224     15.458111840     -0.000000000
