       3
Lattice="15.0 0.0 0.0 0.0 15.0 0.0 0.0 0.0 15.0" Properties=species:S:1:pos:R:3:forces:R:3 energy=        2.7014134173 pbc="T T T"
       O     0.0000000000     0.0000000000     0.0000000000      5.139789804     -3.318375138     -0.000000000
       H     1.3263200000     0.0000000000     0.0000000000     -6.534083200      1.597604040     -0.000000000
       H    -0.7729100000     0.5658300000     0.0000000000      1.394293396      1.720771098     -0.000000000
