       3
Lattice="15.0 0.0 0.0 0.0 15.0 0.0 0.0 0.0 15.0" Properties=species:S:1:pos:R:3:forces:R:3 energy=        1.9965415304 pbc="T T T"
       O     0.0000000000     0.0000000000     0.0000000000      6.911786043     -4.433450302     -0.000000000
       H     1.2157900000     0.0000000000     0.0000000000     -6.648201513      1.608738979     -0.000000000
       H    -0.7431900000     0.5440700000     0.0000000000     -0.263584530      2.824711323     -0.000000000
