       3
Lattice="15.0 0.0 0.0 0.0 15.0 0.0 0.0 0.0 15.0" Properties=species:S:1:pos:R:3:forces:R:3 energy=        2.5143903641 pbc="T T T"
       O     0.0000000000     0.0000000000     0.0000000000     -0.410388727     -0.063467146     -0.000000000
       H     1.1421100000     0.0000000000     0.0000000000     -5.649592081      1.861595781     -0.000000000
       H    -0.9875900000     0.6438900000     0.0000000000      6.059980860     -1.798128636     -0.000000000
