       3
Lattice="15.0 0.0 0.0 0.0 15.0 0.0 0.0 0.0 15.0" Properties=species:S:1:pos:R:3:forces:R:3 energy=        1.0182081667 pbc="T T T"
       O     0.0000000000     0.0000000000     0.0000000000      5.323015392     -5.494561687     -0.000000000
       H     0.9947400000     0.0000000000     0.0000000000     -2.756419448      1.630911103     -0.000000000
       H    -0.7406900000     0.4829100000     0.0000000000     -2.566595892      3.863650583     -0.000000000
