       3
Lattice="15.0 0.0 0.0 0.0 15.0 0.0 0.0 0.0 15.0" Properties=species:S:1:pos:R:3:forces:R:3 energy=        4.9518791064 pbc="T T T"
       O     0.0000000000     0.0000000000     0.0000000000     27.109268108    -19.518821581     -0.000000000
       H     1.3263200000     0.0000000000     0.0000000000     -6.953416799      1.474374144     -0.000000000
       H    -0.5945500000     0.4352500000     0.0000000000    -20.155851308     18.044447437     -0.000000000
