       3
Lattice="15.0 0.0 0.0 0.0 15.0 0.0 0.0 0.0 15.0" Properties=species:S:1:pos:R:3:forces:R:3 energy=        4.0778637121 pbc="T T T"
       O     0.0000000000     0.0000000000     0.0000000000     -0.222910996     -0.267952065     -0.000000000
       H     1.1789500000     0.0000000000     0.0000000000     -5.506788471      1.996517003     -0.000000000
       H    -1.1727600000     0.7646100000     0.0000000000      5.729699466     -1.728564938     -0.000000000
