       3
Lattice="15.0 0.0 0.0 0.0 15.0 0.0 0.0 0.0 15.0" Properties=species:S:1:pos:R:3:forces:R:3 energy=        2.9721912336 pbc="T T T"
       O     0.0000000000     0.0000000000     0.0000000000      3.864623592     -2.551578431     -0.000000000
       H     1.3263200000     0.0000000000     0.0000000000     -6.592053530      1.624767501     -0.000000000
       H    -0.8614700000     0.4973700000     0.0000000000      2.727429938      0.926810931     -0.000000000
