       3
Lattice="15.0 0.0 0.0 0.0 15.0 0.0 0.0 0.0 15.0" Properties=species:S:1:pos:R:3:forces:R:3 energy=        5.4277467934 pbc="T T T"
       O     0.0000000000     0.0000000000     0.0000000000    -43.265403418      0.162807060     -0.000000000
       H     0.7000000000     0.0000000000     0.0000000000     36.493813680      2.520057309     -0.000000000
       H    -1.0184500000     0.6640100000     0.0000000000      6.771589738     -2.682864369     -0.000000000
