       3
Lattice="15.0 0.0 0.0 0.0 15.0 0.0 0.0 0.0 15.0" Properties=species:S:1:pos:R:3:forces:R:3 energy=        2.0089863530 pbc="T T T"
       O     0.0000000000     0.0000000000     0.0000000000     15.285511341     -9.566577191     -0.000000000
       H     1.0684200000     0.0000000000     0.0000000000     -5.256246434      1.497267926     -0.000000000
       H    -0.7019400000     0.4052600000     0.0000000000    -10.029264907      8.069309265     -0.000000000
