       3
Lattice="15.0 0.0 0.0 0.0 15.0 0.0 0.0 0.0 15.0" Properties=species:S:1:pos:R:3:forces:R:3 energy=        4.2894110950 pbc="T T T"
       O     0.0000000000     0.0000000000     0.0000000000    -40.663611009     -0.939655551     -0.000000000
       H     0.7000000000     0.0000000000     0.0000000000     36.167872413      2.138487010     -0.000000000
       H    -0.8641400000     0.5634000000     0.0000000000      4.495738648     -1.198831459     -0.000000000
