       3
Lattice="15.0 0.0 0.0 0.0 15.0 0.0 0.0 0.0 15.0" Properties=species:S:1:pos:R:3:forces:R:3 energy=        2.3703533359 pbc="T T T"
       O     0.0000000000     0.0000000000     0.0000000000      1.684012122     -0.983121099     -0.000000000
       H     1.2157900000     0.0000000000     0.0000000000     -6.407075837      1.722528294     -0.000000000
       H    -0.8950000000     0.5835200000     0.0000000000      4.723063715     -0.739407195     -0.000000000
