       3
Lattice="15.0 0.0 0.0 0.0 15.0 0.0 0.0 0.0 15.0" Properties=species:S:1:pos:R:3:forces:R:3 energy=        4.1579237513 pbc="T T T"
       O     0.0000000000     0.0000000000     0.0000000000     -0.051433966      0.175500191     -0.000000000
       H     1.4000000000     0.0000000000     0.0000000000     -5.655590108      1.649067420     -0.000000000
       H    -0.9810100000     0.7181700000     0.0000000000      5.707024074     -1.824567610     -0.000000000
