       3
Lattice="15.0 0.0 0.0 0.0 15.0 0.0 0.0 0.0 15.0" Properties=species:S:1:pos:R:3:forces:R:3 energy=        3.4087386638 pbc="T T T"
       O     0.0000000000     0.0000000000     0.0000000000     27.205522953    -16.432747883     -0.000000000
       H     1.0684200000     0.0000000000     0.0000000000     -5.396244867      1.436292643     -0.000000000
       H    -0.6381200000     0.3684200000     0.0000000000    -21.809278087     14.996455240     -0.000000000
