       3
Lattice="15.0 0.0 0.0 0.0 15.0 0.0 0.0 0.0 15.0" Properties=species:S:1:pos:R:3:forces:R:3 energy=        3.6213965325 pbc="T T T"
       O     0.0000000000     0.0000000000     0.0000000000    -32.474138250     -0.340351330     -0.000000000
       H     0.7368400000     0.0000000000     0.0000000000     26.457877117      2.154959151     -0.000000000
       H    -0.9571800000     0.5526300000     0.0000000000      6.016261133     -1.814607821     -0.000000000
