       3
Lattice="15.0 0.0 0.0 0.0 15.0 0.0 0.0 0.0 15.0" Properties=species:S:1:pos:R:3:forces:R:3 energy=        3.9456382704 pbc="T T T"
       O     0.0000000000     0.0000000000     0.0000000000      0.024975708      0.209270978     -0.000000000
       H     1.2157900000     0.0000000000     0.0000000000     -5.750395982      1.891446509     -0.000000000
       H    -1.0999200000     0.8052200000     0.0000000000      5.725420274     -2.100717487     -0.000000000
