       3
Lattice="15.0 0.0 0.0 0.0 15.0 0.0 0.0 0.0 15.0" Properties=species:S:1:pos:R:3:forces:R:3 energy=        1.7643747687 pbc="T T T"
       O     0.0000000000     0.0000000000     0.0000000000     -2.395401273     -0.088045207     -0.000000000
       H     1.0315800000     0.0000000000     0.0000000000     -3.545523623      1.906144484     -0.000000000
       H    -0.9567300000     0.6237700000     0.0000000000      5.940924895     -1.818099329     -0.000000000
