       3
Lattice="15.0 0.0 0.0 0.0 15.0 0.0 0.0 0.0 15.0" Properties=species:S:1:pos:R:3:forces:R:3 energy=        3.3707833491 pbc="T T T"
       O     0.0000000000     0.0000000000     0.0000000000      1.100452881     -1.027867108     -0.000000000
       H     1.3263200000     0.0000000000     0.0000000000     -6.341127113      1.699149396     -0.000000000
       H    -0.9571800000     0.5526300000     0.0000000000      5.240674231     -0.671282288     -0.000000000
