       3
Lattice="15.0 0.0 0.0 0.0 15.0 0.0 0.0 0.0 15.0" Properties=species:S:1:pos:R:3:forces:R:3 energy=        2.1864894620 pbc="T T T"
       O     0.0000000000     0.0000000000     0.0000000000    -21.955275369     -1.601168414     -0.000000000
       H     0.7736800000     0.0000000000     0.0000000000     18.631288898      1.954048015     -0.000000000
       H    -0.8332800000     0.5432800000     0.0000000000      3.323986471     -0.352879602     -0.000000000
