       3
Lattice="15.0 0.0 0.0 0.0 15.0 0.0 0.0 0.0 15.0" Properties=species:S:1:pos:R:3:forces:R:3 energy=        2.8151684722 pbc="T T T"
       O     0.0000000000     0.0000000000     0.0000000000      2.834878035    -12.046854013     -0.000000000
       H     0.8105300000     0.0000000000     0.0000000000     12.088003665      1.552781412     -0.000000000
       H    -0.6700300000     0.3868400000     0.0000000000    -14.922881700     10.494072601     -0.000000000
