       3
Lattice="15.0 0.0 0.0 0.0 15.0 0.0 0.0 0.0 15.0" Properties=species:S:1:pos:R:3:forces:R:3 energy=        4.5878015728 pbc="T T T"
       O     0.0000000000     0.0000000000     0.0000000000      0.168210287      0.216280889     -0.000000000
       H     1.3263200000     0.0000000000     0.0000000000     -5.744014296      1.752447104     -0.000000000
       H    -1.0999200000     0.8052200000     0.0000000000      5.575804008     -1.968727941     -0.000000000
