       3
Lattice="15.0 0.0 0.0 0.0 15.0 0.0 0.0 0.0 15.0" Properties=species:S:1:pos:R:3:forces:R:3 energy=        4.1494168217 pbc="T T T"
       O     0.0000000000     0.0000000000     0.0000000000     32.224680242    -22.892759108     -0.000000000
       H     0.9947400000     0.0000000000     0.0000000000     -3.120368683      1.452759281     -0.000000000
       H    -0.5863800000     0.3823100000     0.0000000000    -29.104311559     21.439999879     -0.000000000
