       3
Lattice="15.0 0.0 0.0 0.0 15.0 0.0 0.0 0.0 15.0" Properties=species:S:1:pos:R:3:forces:R:3 energy=        1.9732142650 pbc="T T T"
       O     0.0000000000     0.0000000000     0.0000000000      9.317741339     -5.867655260     -0.000000000
       H     1.1789500000     0.0000000000     0.0000000000     -6.602078832      1.580865688     -0.000000000
       H    -0.7406900000     0.4829100000     0.0000000000     -2.715662507      4.286789572     -0.000000000
