       3
Lattice="15.0 0.0 0.0 0.0 15.0 0.0 0.0 0.0 15.0" Properties=species:S:1:pos:R:3:forces:R:3 energy=        6.2212261043 pbc="T T T"
       O     0.0000000000     0.0000000000     0.0000000000     36.306560149    -23.802087403     -0.000000000
       H     1.3263200000     0.0000000000     0.0000000000     -7.096308033      1.458512333     -0.000000000
       H    -0.5863800000     0.3823100000     0.0000000000    -29.210252064     22.343575070     -0.000000000
