       3
Lattice="15.0 0.0 0.0 0.0 15.0 0.0 0.0 0.0 15.0" Properties=species:S:1:pos:R:3:forces:R:3 energy=        3.0830968374 pbc="T T T"
       O     0.0000000000     0.0000000000     0.0000000000      1.772549438     -1.168282626     -0.000000000
       H     1.3263200000     0.0000000000     0.0000000000     -6.359498219      1.675665494     -0.000000000
       H    -0.8950000000     0.5835200000     0.0000000000      4.586948781     -0.507382869     -0.000000000
