       3
Lattice="15.0 0.0 0.0 0.0 15.0 0.0 0.0 0.0 15.0" Properties=species:S:1:pos:R:3:forces:R:3 energy=        1.5530582907 pbc="T T T"
       O     0.0000000000     0.0000000000     0.0000000000      1.414110132     -1.318646106     -0.000000000
       H     1.1052600000     0.0000000000     0.0000000000     -5.466786046      1.737977289     -0.000000000
       H    -0.8641400000     0.5634000000     0.0000000000      4.052675915     -0.419331183     -0.000000000
