       3
Lattice="15.0 0.0 0.0 0.0 15.0 0.0 0.0 0.0 15.0" Properties=species:S:1:pos:R:3:forces:R:3 energy=        6.0246184281 pbc="T T T"
       O     0.0000000000     0.0000000000     0.0000000000    -14.884718129    -16.875250218     -0.000000000
       H     0.7000000000     0.0000000000     0.0000000000     35.523921787      1.602019912     -0.000000000
       H    -0.6172400000     0.4024300000     0.0000000000    -20.639203658     15.273230306     -0.000000000
