       3
Lattice="15.0 0.0 0.0 0.0 15.0 0.0 0.0 0.0 15.0" Properties=species:S:1:pos:R:3:forces:R:3 energy=        3.0152077328 pbc="T T T"
       O     0.0000000000     0.0000000000     0.0000000000     -1.372038174      0.045110283     -0.000000000
       H     1.1052600000     0.0000000000     0.0000000000     -4.909106668      2.001788898     -0.000000000
       H    -1.0801700000     0.7042500000     0.0000000000      6.281144842     -2.046899182     -0.000000000
