       3
Lattice="15.0 0.0 0.0 0.0 15.0 0.0 0.0 0.0 15.0" Properties=species:S:1:pos:R:3:forces:R:3 energy=        6.1164793814 pbc="T T T"
       O     0.0000000000     0.0000000000     0.0000000000     35.004029519    -25.365426850     -0.000000000
       H     1.3263200000     0.0000000000     0.0000000000     -7.015138834      1.456144963     -0.000000000
       H    -0.5648200000     0.4134900000     0.0000000000    -27.988890737     23.909281887     -0.000000000
