       3
Lattice="15.0 0.0 0.0 0.0 15.0 0.0 0.0 0.0 15.0" Properties=species:S:1:pos:R:3:forces:R:3 energy=        2.9682405322 pbc="T T T"
       O     0.0000000000     0.0000000000     0.0000000000     12.761752824     -8.151610419     -0.000000000
       H     1.2894700000     0.0000000000     0.0000000000     -6.925282952      1.543138948     -0.000000000
       H    -0.7098300000     0.4627900000     0.0000000000     -5.836469923      6.608471471     -0.000000000
