       3
Lattice="15.0 0.0 0.0 0.0 15.0 0.0 0.0 0.0 15.0" Properties=species:S:1:pos:R:3:forces:R:3 energy=        3.2059171587 pbc="T T T"
       O     0.0000000000     0.0000000000     0.0000000000     -0.818385094      0.019729627     -0.000000000
       H     1.1421100000     0.0000000000     0.0000000000     -5.408740125      1.963812658     -0.000000000
       H    -1.0801700000     0.7042500000     0.0000000000      6.227125219     -1.983542285     -0.000000000
