       3
Lattice="15.0 0.0 0.0 0.0 15.0 0.0 0.0 0.0 15.0" Properties=species:S:1:pos:R:3:forces:R:3 energy=        3.9786149981 pbc="T T T"
       O     0.0000000000     0.0000000000     0.0000000000      0.023562012     -0.500009558     -0.000000000
       H     1.3263200000     0.0000000000     0.0000000000     -6.090978609      1.771491994     -0.000000000
       H    -1.0529100000     0.6078900000     0.0000000000      6.067416597     -1.271482436     -0.000000000
