       3
Lattice="15.0 0.0 0.0 0.0 15.0 0.0 0.0 0.0 15.0" Properties=species:S:1:pos:R:3:forces:R:3 energy=        4.6270017213 pbc="T T T"
       O     0.0000000000     0.0000000000     0.0000000000     -0.378408766     -0.516651237     -0.000000000
       H     1.4000000000     0.0000000000     0.0000000000     -5.617788035      1.736932186     -0.000000000
       H    -1.0848100000     0.6263100000     0.0000000000      5.996196800     -1.220280949     -0.000000000
