       3
Lattice="15.0 0.0 0.0 0.0 15.0 0.0 0.0 0.0 15.0" Properties=species:S:1:pos:R:3:forces:R:3 energy=        3.5930684129 pbc="T T T"
       O     0.0000000000     0.0000000000     0.0000000000     21.018279986    -14.770141748     -0.000000000
       H     1.2526300000     0.0000000000     0.0000000000     -7.002383173      1.499894155     -0.000000000
       H    -0.6242700000     0.4570100000     0.0000000000    -14.015896812     13.270247593     -0.000000000
