       3
Lattice="15.0 0.0 0.0 0.0 15.0 0.0 0.0 0.0 15.0" Properties=species:S:1:pos:R:3:forces:R:3 energy=        2.8603810581 pbc="T T T"
       O     0.0000000000     0.0000000000     0.0000000000     12.357336721     -8.480665036     -0.000000000
       H     1.2894700000     0.0000000000     0.0000000000     -6.849807824      1.541529796     -0.000000000
       H    -0.6837300000     0.5005400000     0.0000000000     -5.507528897      6.939135240     -0.000000000
