       3
Lattice="15.0 0.0 0.0 0.0 15.0 0.0 0.0 0.0 15.0" Properties=species:S:1:pos:R:3:forces:R:3 energy=        1.4054964167 pbc="T T T"
       O     0.0000000000     0.0000000000     0.0000000000     -9.561131695     -0.690749919     -0.000000000
       H     0.8842100000     0.0000000000     0.0000000000      4.347911665      1.892296362     -0.000000000
       H    -0.9252800000     0.5342100000     0.0000000000      5.213220030     -1.201546443     -0.000000000
