       3
Lattice="15.0 0.0 0.0 0.0 15.0 0.0 0.0 0.0 15.0" Properties=species:S:1:pos:R:3:forces:R:3 energy=        3.3362220181 pbc="T T T"
       O     0.0000000000     0.0000000000     0.0000000000     20.927922379    -14.679723514     -0.000000000
       H     1.2157900000     0.0000000000     0.0000000000     -6.924742403      1.502406278     -0.000000000
       H    -0.6242700000     0.4570100000     0.0000000000    -14.003179976     13.177317185     -0.000000000
