       3
Lattice="15.0 0.0 0.0 0.0 15.0 0.0 0.0 0.0 15.0" Properties=species:S:1:pos:R:3:forces:R:3 energy=        5.4515335720 pbc="T T T"
       O     0.0000000000     0.0000000000     0.0000000000     26.753421606    -19.689158120     -0.000000000
       H     1.4000000000     0.0000000000     0.0000000000     -6.573188566      1.465364377     -0.000000000
       H    -0.5945500000     0.4352500000     0.0000000000    -20.180233040     18.223793743     -0.000000000
