       3
Lattice="15.0 0.0 0.0 0.0 15.0 0.0 0.0 0.0 15.0" Properties=species:S:1:pos:R:3:forces:R:3 energy=        4.6832711450 pbc="T T T"
       O     0.0000000000     0.0000000000     0.0000000000     35.263139556    -23.177437235     -0.000000000
       H     1.1052600000     0.0000000000     0.0000000000     -6.104239697      1.444188248     -0.000000000
       H    -0.5863800000     0.3823100000     0.0000000000    -29.158899859     21.733248988     -0.000000000
