       3
Lattice="15.0 0.0 0.0 0.0 15.0 0.0 0.0 0.0 15.0" Properties=species:S:1:pos:R:3:forces:R:3 energy=        2.3992940218 pbc="T T T"
       O     0.0000000000     0.0000000000     0.0000000000      0.389791250      0.011012246     -0.000000000
       H     1.1789500000     0.0000000000     0.0000000000     -6.002666933      1.797933900     -0.000000000
       H    -0.9215600000     0.6746500000     0.0000000000      5.612875734     -1.808946146     -0.000000000
