       3
Lattice="15.0 0.0 0.0 0.0 15.0 0.0 0.0 0.0 15.0" Properties=species:S:1:pos:R:3:forces:R:3 energy=        4.5818055956 pbc="T T T"
       O     0.0000000000     0.0000000000     0.0000000000     -0.187059105      0.293835835     -0.000000000
       H     1.4000000000     0.0000000000     0.0000000000     -5.526011641      1.657828612     -0.000000000
       H    -1.0404600000     0.7616900000     0.0000000000      5.713070746     -1.951664447     -0.000000000
