       3
Lattice="15.0 0.0 0.0 0.0 15.0 0.0 0.0 0.0 15.0" Properties=species:S:1:pos:R:3:forces:R:3 energy=        2.0631683206 pbc="T T T"
       O     0.0000000000     0.0000000000     0.0000000000    -14.483412033     -0.159616988     -0.000000000
       H     0.8473700000     0.0000000000     0.0000000000      8.164902617      2.050707039     -0.000000000
       H    -0.9891000000     0.5710500000     0.0000000000      6.318509365     -1.891090051     -0.000000000
