       3
Lattice="15.0 0.0 0.0 0.0 15.0 0.0 0.0 0.0 15.0" Properties=species:S:1:pos:R:3:forces:R:3 energy=        3.6270023610 pbc="T T T"
       O     0.0000000000     0.0000000000     0.0000000000      0.142449775     -0.131491317     -0.000000000
       H     1.2894700000     0.0000000000     0.0000000000     -6.141743728      1.784077653     -0.000000000
       H    -1.0184500000     0.6640100000     0.0000000000      5.999293901     -1.652586336     -0.000000000
