       3
Lattice="15.0 0.0 0.0 0.0 15.0 0.0 0.0 0.0 15.0" Properties=species:S:1:pos:R:3:forces:R:3 energy=        2.7128592120 pbc="T T T"
       O     0.0000000000     0.0000000000     0.0000000000      7.429008991     -4.452459813     -0.000000000
       H     1.2894700000     0.0000000000     0.0000000000     -6.856148578      1.575228490     -0.000000000
       H    -0.7976500000     0.4605200000     0.0000000000     -0.572860412      2.877231323     -0.000000000
