       3
Lattice="15.0 0.0 0.0 0.0 15.0 0.0 0.0 0.0 15.0" Properties=species:S:1:pos:R:3:forces:R:3 energy=        3.3275250795 pbc="T T T"
       O     0.0000000000     0.0000000000     0.0000000000      0.651938841     -0.709775371     -0.000000000
       H     1.2894700000     0.0000000000     0.0000000000     -6.359451682      1.738508787     -0.000000000
       H    -0.9891000000     0.5710500000     0.0000000000      5.707512790     -1.028733416     -0.000000000
