       3
Lattice="15.0 0.0 0.0 0.0 15.0 0.0 0.0 0.0 15.0" Properties=species:S:1:pos:R:3:forces:R:3 energy=        2.0732866840 pbc="T T T"
       O     0.0000000000     0.0000000000     0.0000000000    -11.125844625     -0.067915619     -0.000000000
       H     0.8842100000     0.0000000000     0.0000000000      4.564845408      2.066362288     -0.000000000
       H    -1.0210000000     0.5894700000     0.0000000000      6.560999217     -1.998446668     -0.000000000
