       3
Lattice="15.0 0.0 0.0 0.0 15.0 0.0 0.0 0.0 15.0" Properties=species:S:1:pos:R:3:forces:R:3 energy=        2.6924625965 pbc="T T T"
       O     0.0000000000     0.0000000000     0.0000000000     16.936794024     -9.831214485     -0.000000000
       H     1.1789500000     0.0000000000     0.0000000000     -6.823380470      1.489912099     -0.000000000
       H    -0.7019400000     0.4052600000     0.0000000000    -10.113413502      8.341302438     -0.000000000
