       3
Lattice="15.0 0.0 0.0 0.0 15.0 0.0 0.0 0.0 15.0" Properties=species:S:1:pos:R:3:forces:R:3 energy=        4.0690646193 pbc="T T T"
       O     0.0000000000     0.0000000000     0.0000000000     -0.021790007     -0.106661854     -0.000000000
       H     1.3263200000     0.0000000000     0.0000000000     -5.969468782      1.772465106     -0.000000000
       H    -1.0493100000     0.6841300000     0.0000000000      5.991258840     -1.665803252     -0.000000000
