       3
Lattice="15.0 0.0 0.0 0.0 15.0 0.0 0.0 0.0 15.0" Properties=species:S:1:pos:R:3:forces:R:3 energy=        2.3703614150 pbc="T T T"
       O     0.0000000000     0.0000000000     0.0000000000     -1.948708706      0.096199773     -0.000000000
       H     1.0684200000     0.0000000000     0.0000000000     -4.359684649      1.960285772     -0.000000000
       H    -1.0184500000     0.6640100000     0.0000000000      6.308393355     -2.056485596     -0.000000000
