       3
Lattice="15.0 0.0 0.0 0.0 15.0 0.0 0.0 0.0 15.0" Properties=species:S:1:pos:R:3:forces:R:3 energy=        1.0403720066 pbc="T T T"
       O     0.0000000000     0.0000000000     0.0000000000     -5.717251362     -1.060369261     -0.000000000
       H     0.9210500000     0.0000000000     0.0000000000      1.468106460      1.854298833     -0.000000000
       H    -0.8641400000     0.5634000000     0.0000000000      4.249144901     -0.793929572     -0.000000000
