       3
Lattice="15.0 0.0 0.0 0.0 15.0 0.0 0.0 0.0 15.0" Properties=species:S:1:pos:R:3:forces:R:3 energy=        3.0871762214 pbc="T T T"
       O     0.0000000000     0.0000000000     0.0000000000    -29.673208357     -1.651406456     -0.000000000
       H     0.7368400000     0.0000000000     0.0000000000     26.247040645      1.956260142     -0.000000000
       H    -0.8614700000     0.4973700000     0.0000000000      3.426167712     -0.304853686     -0.000000000
