       3
Lattice="15.0 0.0 0.0 0.0 15.0 0.0 0.0 0.0 15.0" Properties=species:S:1:pos:R:3:forces:R:3 energy=        4.6330073531 pbc="T T T"
       O     0.0000000000     0.0000000000     0.0000000000     29.143954544    -16.934821215     -0.000000000
       H     1.2526300000     0.0000000000     0.0000000000     -7.235082569      1.446400374     -0.000000000
       H    -0.6381200000     0.3684200000     0.0000000000    -21.908871975     15.488420841     -0.000000000
