       3
Lattice="15.0 0.0 0.0 0.0 15.0 0.0 0.0 0.0 15.0" Properties=species:S:1:pos:R:3:forces:R:3 energy=        2.1373963801 pbc="T T T"
       O     0.0000000000     0.0000000000     0.0000000000     -1.719755769      0.021305045     -0.000000000
       H     1.0684200000     0.0000000000     0.0000000000     -4.439806278      1.918784342     -0.000000000
       H    -0.9875900000     0.6438900000     0.0000000000      6.159562098     -1.940089387     -0.000000000
