       3
Lattice="15.0 0.0 0.0 0.0 15.0 0.0 0.0 0.0 15.0" Properties=species:S:1:pos:R:3:forces:R:3 energy=        1.0996416816 pbc="T T T"
       O    -0.0151613200    -0.0253533900     0.0000000000      4.082289586      6.757738118     -0.000000000
       H     1.0345966000     0.2079028200     0.0000000000     -3.088818918     -2.032322460     -0.000000000
       H    -0.0726561200     1.1234208500     0.0000000000     -0.993470720     -4.725415659     -0.000000000
