       3
Lattice="15.0 0.0 0.0 0.0 15.0 0.0 0.0 0.0 15.0" Properties=species:S:1:pos:R:3:forces:R:3 energy=        1.9234622240 pbc="T T T"
       O    -0.0006529600    -0.0008456800     0.0000000000      2.295934449      2.957805312     -0.000000000
       H     1.1761717800    -0.1580579100     0.0000000000     -5.533272080      1.926538124     -0.000000000
       H    -0.4444992300     1.1004287900     0.0000000000      3.237337631     -4.884343436     -0.000000000
