       3
Lattice="15.0 0.0 0.0 0.0 15.0 0.0 0.0 0.0 15.0" Properties=species:S:1:pos:R:3:forces:R:3 energy=        3.1357213558 pbc="T T T"
       O    -0.0260606700     0.0130296200     0.0000000000      7.942908221    -11.212848843     -0.000000000
       H     1.4276030800    -0.0838965600     0.0000000000     -5.760629800      1.056462417     -0.000000000
       H    -0.2926900400     0.8060565800     0.0000000000     -2.182278420     10.156386427     -0.000000000
