       3
Lattice="15.0 0.0 0.0 0.0 15.0 0.0 0.0 0.0 15.0" Properties=species:S:1:pos:R:3:forces:R:3 energy=        4.7179713466 pbc="T T T"
       O     0.0050671000     0.0065306900     0.0000000000    -20.233320380    -26.074265825     -0.000000000
       H     0.7407441200     0.0863250800     0.0000000000     26.967364075     -0.053422664     -0.000000000
       H    -0.0998468800     0.7389741100     0.0000000000     -6.734043695     26.127688489     -0.000000000
