       3
Lattice="15.0 0.0 0.0 0.0 15.0 0.0 0.0 0.0 15.0" Properties=species:S:1:pos:R:3:forces:R:3 energy=        0.6265380973 pbc="T T T"
       O     0.0053919100     0.0185935900     0.0000000000      4.159088577     -6.610611864     -0.000000000
       H     1.0287523300    -0.1793329600     0.0000000000     -3.626934609      2.059931236     -0.000000000
       H    -0.3930170100     0.8131875900     0.0000000000     -0.532153968      4.550680629     -0.000000000
