       3
Lattice="15.0 0.0 0.0 0.0 15.0 0.0 0.0 0.0 15.0" Properties=species:S:1:pos:R:3:forces:R:3 energy=        1.0669942416 pbc="T T T"
       O    -0.0188980800    -0.0185135200     0.0000000000      3.559210382      1.523595829     -0.000000000
       H     0.9612431500     0.2893629300     0.0000000000     -0.143554682     -3.523384666     -0.000000000
       H     0.0600043800     0.9334059700     0.0000000000     -3.415655701      1.999788836     -0.000000000
