       3
Lattice="15.0 0.0 0.0 0.0 15.0 0.0 0.0 0.0 15.0" Properties=species:S:1:pos:R:3:forces:R:3 energy=        1.1337464627 pbc="T T T"
       O     0.0043392000    -0.0177125200     0.0000000000     -3.844008580      5.563171041     -0.000000000
       H     0.9250445400     0.0285720500     0.0000000000      2.456246252      0.198098141     -0.000000000
       H    -0.2725961100     1.1814859800     0.0000000000      1.387762380     -5.761269131     -0.000000000
