       3
Lattice="15.0 0.0 0.0 0.0 15.0 0.0 0.0 0.0 15.0" Properties=species:S:1:pos:R:3:forces:R:3 energy=        1.6366481229 pbc="T T T"
       O     0.0063069400     0.0139442600     0.0000000000      1.555521695      0.353396754     -0.000000000
       H     1.1380003300    -0.2607935200     0.0000000000     -5.291412919      2.921684587     -0.000000000
       H    -0.5167893100     0.9684374800     0.0000000000      3.735891224     -3.275081340     -0.000000000
