       3
Lattice="15.0 0.0 0.0 0.0 15.0 0.0 0.0 0.0 15.0" Properties=species:S:1:pos:R:3:forces:R:3 energy=       38.3396721123 pbc="T T T"
       O    -0.0064713300     0.0382675500     0.0000000000    139.687395851   -266.619579253     -0.000000000
       H     1.0260321400    -0.0930105300     0.0000000000     -4.426261083      1.474590168     -0.000000000
       H    -0.2020167700     0.4146243300     0.0000000000   -135.261134769    265.144989085     -0.000000000
