       3
Lattice="15.0 0.0 0.0 0.0 15.0 0.0 0.0 0.0 15.0" Properties=species:S:1:pos:R:3:forces:R:3 energy=        1.3536830288 pbc="T T T"
       O     0.0261217300     0.0161683700     0.0000000000     -9.902855429      3.901097639     -0.000000000
       H     0.8481585300    -0.2869300100     0.0000000000      5.660350971      0.051411957     -0.000000000
       H    -0.5414232200     0.9592746500     0.0000000000      4.242504459     -3.952509596     -0.000000000
