       3
Lattice="15.0 0.0 0.0 0.0 15.0 0.0 0.0 0.0 15.0" Properties=species:S:1:pos:R:3:forces:R:3 energy=        1.5158457489 pbc="T T T"
       O     0.0071609200    -0.0199030700     0.0000000000     -6.905929170      5.490431619     -0.000000000
       H     0.8891499800     0.0285724900     0.0000000000      5.468203290      0.390846226     -0.000000000
       H    -0.2814843000     1.2162509700     0.0000000000      1.437725880     -5.881277896     -0.000000000
