       3
Lattice="15.0 0.0 0.0 0.0 15.0 0.0 0.0 0.0 15.0" Properties=species:S:1:pos:R:3:forces:R:3 energy=        1.8311124072 pbc="T T T"
       O     0.0175938300     0.0051820800     0.0000000000     -2.314702894      2.520542579     -0.000000000
       H     0.9944221200    -0.2607917600     0.0000000000     -1.934254471      2.431918411     -0.000000000
       H    -0.5523420800     1.1074974500     0.0000000000      4.248957365     -4.952460990     -0.000000000
