       3
Lattice="15.0 0.0 0.0 0.0 15.0 0.0 0.0 0.0 15.0" Properties=species:S:1:pos:R:3:forces:R:3 energy=        6.6476178125 pbc="T T T"
       O     0.0069110500    -0.0085684500     0.0000000000    -46.350693187    -17.133137644     -0.000000000
       H     0.6341815100     0.1939256500     0.0000000000     51.411332313      9.842698220     -0.000000000
       H    -0.0225462000     0.8710069900     0.0000000000     -5.060639178      7.290439423     -0.000000000
