       3
Lattice="15.0 0.0 0.0 0.0 15.0 0.0 0.0 0.0 15.0" Properties=species:S:1:pos:R:3:forces:R:3 energy=       11.4018125888 pbc="T T T"
       O    -0.0040005100     0.0239749600     0.0000000000     29.172846763    -93.158467642     -0.000000000
       H     0.9555683200    -0.0237084100     0.0000000000     -0.599101978     -0.088348237     -0.000000000
       H    -0.1707646600     0.5721554500     0.0000000000    -28.573744785     93.246815879     -0.000000000
