       3
Lattice="15.0 0.0 0.0 0.0 15.0 0.0 0.0 0.0 15.0" Properties=species:S:1:pos:R:3:forces:R:3 energy=        4.1877826174 pbc="T T T"
       O     0.0149992300    -0.0272812500     0.0000000000    -28.400481198      2.755000764     -0.000000000
       H     0.7453675300     0.0668722700     0.0000000000     27.391266630      3.126738440     -0.000000000
       H    -0.2621003000     1.2950477100     0.0000000000      1.009214569     -5.881739204     -0.000000000
