       3
Lattice="15.0 0.0 0.0 0.0 15.0 0.0 0.0 0.0 15.0" Properties=species:S:1:pos:R:3:forces:R:3 energy=        3.1639538192 pbc="T T T"
       O    -0.0059071900     0.0215161700     0.0000000000     15.442750571    -28.985784985     -0.000000000
       H     1.1007108700    -0.1051694100     0.0000000000     -5.373581970      1.465436780     -0.000000000
       H    -0.2856487800     0.6926403500     0.0000000000    -10.069168601     27.520348205     -0.000000000
