       3
Lattice="15.0 0.0 0.0 0.0 15.0 0.0 0.0 0.0 15.0" Properties=species:S:1:pos:R:3:forces:R:3 energy=       11.0674996910 pbc="T T T"
       O    -0.0128165800     0.0184445600     0.0000000000     19.444824632    -90.900474774     -0.000000000
       H     1.0286827100     0.0455919400     0.0000000000     -3.211783527     -0.962779704     -0.000000000
       H    -0.1039597900     0.5906266100     0.0000000000    -16.233041104     91.863254427     -0.000000000
