       3
Lattice="15.0 0.0 0.0 0.0 15.0 0.0 0.0 0.0 15.0" Properties=species:S:1:pos:R:3:forces:R:3 energy=        2.5413693567 pbc="T T T"
       O     0.0220340700     0.0109062100     0.0000000000    -28.625595219      4.738209988     -0.000000000
       H     0.7402358200    -0.1361682200     0.0000000000     27.212744723     -4.156005617     -0.000000000
       H    -0.3686224200     0.8920259000     0.0000000000      1.412850445     -0.582204371     -0.000000000
