       3
Lattice="15.0 0.0 0.0 0.0 15.0 0.0 0.0 0.0 15.0" Properties=species:S:1:pos:R:3:forces:R:3 energy=       10.2666689221 pbc="T T T"
       O     0.0128304600    -0.0242450300     0.0000000000    -70.197393622    -23.459883233     -0.000000000
       H     0.5639219300     0.2249297400     0.0000000000     73.346708517     26.479248497     -0.000000000
       H    -0.0462308600     1.0888013500     0.0000000000     -3.149314896     -3.019365264     -0.000000000
