       3
Lattice="15.0 0.0 0.0 0.0 15.0 0.0 0.0 0.0 15.0" Properties=species:S:1:pos:R:3:forces:R:3 energy=        4.1693505062 pbc="T T T"
       O    -0.0037611800    -0.0048393200     0.0000000000    -15.570393408    -20.064157859     -0.000000000
       H     0.7422388400     0.2297907400     0.0000000000     20.981908989     -0.221378309     -0.000000000
       H     0.0387734600     0.7759579900     0.0000000000     -5.411515581     20.285536168     -0.000000000
