       3
Lattice="15.0 0.0 0.0 0.0 15.0 0.0 0.0 0.0 15.0" Properties=species:S:1:pos:R:3:forces:R:3 energy=        1.4064465784 pbc="T T T"
       O    -0.0223849700    -0.0230082500     0.0000000000      5.711962034      6.237660319     -0.000000000
       H     1.1428581800     0.2054698900     0.0000000000     -4.803775721     -1.969096998     -0.000000000
       H    -0.0662732200     1.0886350700     0.0000000000     -0.908186313     -4.268563373     -0.000000000
