       3
Lattice="15.0 0.0 0.0 0.0 15.0 0.0 0.0 0.0 15.0" Properties=species:S:1:pos:R:3:forces:R:3 energy=        0.5010284665 pbc="T T T"
       O     0.0037750600    -0.0009611500     0.0000000000     -7.787086800     -1.599401139     -0.000000000
       H     0.8503658000     0.0407309400     0.0000000000      8.962486294     -0.366713069     -0.000000000
       H    -0.1889641000     0.9034699700     0.0000000000     -1.175399494      1.966114208     -0.000000000
