       3
Lattice="15.0 0.0 0.0 0.0 15.0 0.0 0.0 0.0 15.0" Properties=species:S:1:pos:R:3:forces:R:3 energy=        1.1250073846 pbc="T T T"
       O     0.0059438300    -0.0039973800     0.0000000000     -0.041610856      3.752909570     -0.000000000
       H     1.0318114000    -0.1173265300     0.0000000000     -2.907414289      1.442426115     -0.000000000
       H    -0.4048335500     1.1097163300     0.0000000000      2.949025145     -5.195335634     -0.000000000
