       3
Lattice="15.0 0.0 0.0 0.0 15.0 0.0 0.0 0.0 15.0" Properties=species:S:1:pos:R:3:forces:R:3 energy=        5.9138578284 pbc="T T T"
       O     0.0210563000    -0.0020023800     0.0000000000    -56.104541547      5.457227709     -0.000000000
       H     0.6695677500    -0.0285680900     0.0000000000     54.966688559     -2.088750333     -0.000000000
       H    -0.2824335500     0.9892937900     0.0000000000      1.137852937     -3.368477375     -0.000000000
