       3
Lattice="15.0 0.0 0.0 0.0 15.0 0.0 0.0 0.0 15.0" Properties=species:S:1:pos:R:3:forces:R:3 energy=        2.7058955081 pbc="T T T"
       O     0.0163784100     0.0094477100     0.0000000000    -27.578024092     -2.130838438     -0.000000000
       H     0.7404052500    -0.0620037900     0.0000000000     28.872436254     -2.462040853     -0.000000000
       H    -0.2790305700     0.8410086400     0.0000000000     -1.294412110      4.592879290     -0.000000000
