       3
Lattice="15.0 0.0 0.0 0.0 15.0 0.0 0.0 0.0 15.0" Properties=species:S:1:pos:R:3:forces:R:3 energy=        0.3600155458 pbc="T T T"
       O     0.0100698000     0.0071435100     0.0000000000     -2.311195650      1.510290415     -0.000000000
       H     0.9579148300    -0.1458972700     0.0000000000     -0.187812490      1.328845626     -0.000000000
       H    -0.3964199800     0.9614727500     0.0000000000      2.499008140     -2.839136041     -0.000000000
