       3
Lattice="15.0 0.0 0.0 0.0 15.0 0.0 0.0 0.0 15.0" Properties=species:S:1:pos:R:3:forces:R:3 energy=        0.6666147871 pbc="T T T"
       O    -0.0144595100    -0.0011493200     0.0000000000      6.081613618     -4.035074391     -0.000000000
       H     1.1037351300     0.0692994700     0.0000000000     -4.731062884     -0.765289012     -0.000000000
       H    -0.1529367100     0.8778885900     0.0000000000     -1.350550735      4.800363403     -0.000000000
