       3
Lattice="15.0 0.0 0.0 0.0 15.0 0.0 0.0 0.0 15.0" Properties=species:S:1:pos:R:3:forces:R:3 energy=        1.5853288911 pbc="T T T"
       O    -0.0260973100    -0.0044891800     0.0000000000      6.996222036     -5.678755810     -0.000000000
       H     1.2127440700     0.1385993800     0.0000000000     -5.443003896     -1.421409857     -0.000000000
       H    -0.0772436500     0.8615947500     0.0000000000     -1.553218140      7.100165718     -0.000000000
