       3
Lattice="15.0 0.0 0.0 0.0 15.0 0.0 0.0 0.0 15.0" Properties=species:S:1:pos:R:3:forces:R:3 energy=        2.5961652920 pbc="T T T"
       O     0.0073230200     0.0327315800     0.0000000000     15.165638793    -22.189317652     -0.000000000
       H     1.0268491200    -0.2462025900     0.0000000000     -4.280070762      2.715621627     -0.000000000
       H    -0.4217638200     0.6556772600     0.0000000000    -10.885568031     19.473696026     -0.000000000
