       3
Lattice="15.0 0.0 0.0 0.0 15.0 0.0 0.0 0.0 15.0" Properties=species:S:1:pos:R:3:forces:R:3 energy=        1.4890741534 pbc="T T T"
       O    -0.0283165900    -0.0131712800     0.0000000000      6.324371688     -1.707073334     -0.000000000
       H     1.1414980800     0.2486311100     0.0000000000     -4.143619579     -2.833142848     -0.000000000
       H     0.0292269000     0.8893534400     0.0000000000     -2.180752110      4.540216182     -0.000000000
