       3
Lattice="15.0 0.0 0.0 0.0 15.0 0.0 0.0 0.0 15.0" Properties=species:S:1:pos:R:3:forces:R:3 energy=       11.4668755297 pbc="T T T"
       O     0.0229752000     0.0062960100     0.0000000000    -95.041068420      0.829039956     -0.000000000
       H     0.5960448700    -0.0212724100     0.0000000000     96.738100820     -5.167168003     -0.000000000
       H    -0.2393649000     0.8502961700     0.0000000000     -1.697032400      4.338128047     -0.000000000
