       3
Lattice="15.0 0.0 0.0 0.0 15.0 0.0 0.0 0.0 15.0" Properties=species:S:1:pos:R:3:forces:R:3 energy=       16.5116787764 pbc="T T T"
       O     0.0188248100    -0.0165240800     0.0000000000   -121.163337586    -33.382439338     -0.000000000
       H     0.5267020900     0.1556289500     0.0000000000    123.630780227     36.129941836     -0.000000000
       H    -0.1041475400     1.0355652000     0.0000000000     -2.467442692     -2.747502498     -0.000000000
