       3
Lattice="15.0 0.0 0.0 0.0 15.0 0.0 0.0 0.0 15.0" Properties=species:S:1:pos:R:3:forces:R:3 energy=       26.5975510866 pbc="T T T"
       O     0.0023569500     0.0496375500     0.0000000000    149.828834391   -145.029734841     -0.000000000
       H     1.0245374200    -0.2364761900     0.0000000000     -5.206937948      2.781850293     -0.000000000
       H    -0.3406371100     0.3776404600     0.0000000000   -144.621896443    142.247884548     -0.000000000
