       3
Lattice="15.0 0.0 0.0 0.0 15.0 0.0 0.0 0.0 15.0" Properties=species:S:1:pos:R:3:forces:R:3 energy=        2.4680203446 pbc="T T T"
       O     0.0109987200    -0.0033062900     0.0000000000    -27.444684408     -0.332824011     -0.000000000
       H     0.7421042200     0.0431638600     0.0000000000     28.265623740      0.649867714     -0.000000000
       H    -0.1953470000     0.9382557400     0.0000000000     -0.820939332     -0.317043703     -0.000000000
