       3
Lattice="15.0 0.0 0.0 0.0 15.0 0.0 0.0 0.0 15.0" Properties=species:S:1:pos:R:3:forces:R:3 energy=        1.6027998826 pbc="T T T"
       O    -0.0161146600    -0.0265827900     0.0000000000      4.699811573      6.939172161     -0.000000000
       H     1.1071678700     0.1671723200     0.0000000000     -4.582226074     -1.471864798     -0.000000000
       H    -0.1300981700     1.1836632900     0.0000000000     -0.117585499     -5.467307363     -0.000000000
