       3
Lattice="15.0 0.0 0.0 0.0 15.0 0.0 0.0 0.0 15.0" Properties=species:S:1:pos:R:3:forces:R:3 energy=       10.0576796381 pbc="T T T"
       O    -0.0039638700     0.0414937600     0.0000000000     50.798330997    -62.474977142     -0.000000000
       H     1.1704273300    -0.2462043500     0.0000000000     -6.593972705      3.067781576     -0.000000000
       H    -0.3862110500     0.5166172900     0.0000000000    -44.204358291     59.407195565     -0.000000000
