       3
Lattice="15.0 0.0 0.0 0.0 15.0 0.0 0.0 0.0 15.0" Properties=species:S:1:pos:R:3:forces:R:3 energy=        2.9977287112 pbc="T T T"
       O    -0.0029838200    -0.0504441000     0.0000000000     -2.777728710      4.998231070     -0.000000000
       H     0.8570270500     0.2747746500     0.0000000000      3.429670276     -0.309496226     -0.000000000
       H    -0.0883502600     1.4547561400     0.0000000000     -0.651941567     -4.688734844     -0.000000000
