       3
Lattice="15.0 0.0 0.0 0.0 15.0 0.0 0.0 0.0 15.0" Properties=species:S:1:pos:R:3:forces:R:3 energy=        8.3442863181 pbc="T T T"
       O    -0.0310877900     0.0007376000     0.0000000000     -7.858392626    -52.890750861     -0.000000000
       H     1.0671930300     0.2966564100     0.0000000000     -1.001208407     -4.622343324     -0.000000000
       H     0.1475139900     0.6205833900     0.0000000000      8.859600981     57.513094185     -0.000000000
