       3
Lattice="15.0 0.0 0.0 0.0 15.0 0.0 0.0 0.0 15.0" Properties=species:S:1:pos:R:3:forces:R:3 energy=        1.7444628234 pbc="T T T"
       O    -0.0185349600    -0.0005718800     0.0000000000      6.436796467    -14.500879397     -0.000000000
       H     1.0674320900     0.1458959500     0.0000000000     -3.602853388     -2.045410307     -0.000000000
       H    -0.0519513800     0.7921271200     0.0000000000     -2.833943079     16.546289703     -0.000000000
