       3
Lattice="15.0 0.0 0.0 0.0 15.0 0.0 0.0 0.0 15.0" Properties=species:S:1:pos:R:3:forces:R:3 energy=        1.1337445906 pbc="T T T"
       O     0.0179325200     0.0114445200     0.0000000000     -3.365054978      2.124041980     -0.000000000
       H     0.9573717200    -0.2559281200     0.0000000000     -0.730243728      2.106138918     -0.000000000
       H    -0.5206669100     1.0032440400     0.0000000000      4.095298654     -4.230180847     -0.000000000
