       3
Lattice="15.0 0.0 0.0 0.0 15.0 0.0 0.0 0.0 15.0" Properties=species:S:1:pos:R:3:forces:R:3 energy=        1.0685444634 pbc="T T T"
       O    -0.0188614400    -0.0009947200     0.0000000000      6.758316566     -4.265901148     -0.000000000
       H     1.1761021600     0.0668669900     0.0000000000     -5.593885094     -0.616086642     -0.000000000
       H    -0.1554420100     0.8778678000     0.0000000000     -1.164431471      4.881987739     -0.000000000
