       3
Lattice="15.0 0.0 0.0 0.0 15.0 0.0 0.0 0.0 15.0" Properties=species:S:1:pos:R:3:forces:R:3 energy=        1.9073280299 pbc="T T T"
       O    -0.0026084900    -0.0266628700     0.0000000000      1.695324673      5.912424923     -0.000000000
       H     1.0348356500     0.0571423500     0.0000000000     -2.941289103     -0.147877839     -0.000000000
       H    -0.2721214900     1.2949645700     0.0000000000      1.245964431     -5.764547084     -0.000000000
