       3
Lattice="15.0 0.0 0.0 0.0 15.0 0.0 0.0 0.0 15.0" Properties=species:S:1:pos:R:3:forces:R:3 energy=        0.2846216933 pbc="T T T"
       O     0.0060065600     0.0135605500     0.0000000000      1.708186262     -3.672539315     -0.000000000
       H     0.9932314600    -0.1434661100     0.0000000000     -2.152306902      1.531403656     -0.000000000
       H    -0.3672501100     0.8571985500     0.0000000000      0.444120640      2.141135711     -0.000000000
