       3
Lattice="15.0 0.0 0.0 0.0 15.0 0.0 0.0 0.0 15.0" Properties=species:S:1:pos:R:3:forces:R:3 energy=        0.9510370536 pbc="T T T"
       O    -0.0210929400    -0.0155164200     0.0000000000      5.120661558      0.846216733     -0.000000000
       H     1.0332365000     0.2510640300     0.0000000000     -2.458522451     -3.087619755     -0.000000000
       H     0.0228440000     0.9241392200     0.0000000000     -2.662139108      2.241403022     -0.000000000
