       3
Lattice="15.0 0.0 0.0 0.0 15.0 0.0 0.0 0.0 15.0" Properties=species:S:1:pos:R:3:forces:R:3 energy=        3.5074482767 pbc="T T T"
       O     0.0094063000    -0.0111818400     0.0000000000    -33.120433877     -1.758589267     -0.000000000
       H     0.7069570300     0.1148971300     0.0000000000     34.624335510      3.695608138     -0.000000000
       H    -0.1349250200     0.9915126700     0.0000000000     -1.503901632     -1.937018871     -0.000000000
