       3
Lattice="15.0 0.0 0.0 0.0 15.0 0.0 0.0 0.0 15.0" Properties=species:S:1:pos:R:3:forces:R:3 energy=        2.5348316552 pbc="T T T"
       O    -0.0301849700    -0.0097513400     0.0000000000      4.756625935    -10.914928089     -0.000000000
       H     1.1048213600     0.2893611700     0.0000000000     -2.910877824     -3.693093752     -0.000000000
       H     0.0955571500     0.7943460000     0.0000000000     -1.845748111     14.608021790     -0.000000000
