       3
Lattice="15.0 0.0 0.0 0.0 15.0 0.0 0.0 0.0 15.0" Properties=species:S:1:pos:R:3:forces:R:3 energy=        1.6147780979 pbc="T T T"
       O    -0.0185471800    -0.0064114800     0.0000000000      4.107773139    -10.468233979     -0.000000000
       H     0.9958124200     0.2200612600     0.0000000000     -1.150855989     -3.154561080     -0.000000000
       H     0.0198640800     0.8106398400     0.0000000000     -2.956917201     13.622795059     -0.000000000
