       3
Lattice="15.0 0.0 0.0 0.0 15.0 0.0 0.0 0.0 15.0" Properties=species:S:1:pos:R:3:forces:R:3 energy=        0.6563957552 pbc="T T T"
       O    -0.0144839400    -0.0128285100     0.0000000000      2.947275971     -0.217510648     -0.000000000
       H     0.9604957900     0.2176301000     0.0000000000     -0.179293701     -2.691706242     -0.000000000
       H    -0.0093057900     0.9149140300     0.0000000000     -2.767982219      2.909216890     -0.000000000
