       3
Lattice="15.0 0.0 0.0 0.0 15.0 0.0 0.0 0.0 15.0" Properties=species:S:1:pos:R:3:forces:R:3 energy=        3.1466075728 pbc="T T T"
       O    -0.0081142600     0.0186736700     0.0000000000     14.450020021    -29.428196817     -0.000000000
       H     1.1010845500    -0.0693029900     0.0000000000     -5.286027330      0.999642604     -0.000000000
       H    -0.2509936900     0.7018863200     0.0000000000     -9.163992640     28.428554213     -0.000000000
