       3
Lattice="15.0 0.0 0.0 0.0 15.0 0.0 0.0 0.0 15.0" Properties=species:S:1:pos:R:3:forces:R:3 energy=        2.5414343402 pbc="T T T"
       O     0.0051037300     0.0240494800     0.0000000000     11.681884822    -26.556866693     -0.000000000
       H     0.9556031300    -0.1361708600     0.0000000000     -0.915387462      1.224428243     -0.000000000
       H    -0.3152932700     0.6834359500     0.0000000000    -10.766497359     25.332438501     -0.000000000
