       3
Lattice="15.0 0.0 0.0 0.0 15.0 0.0 0.0 0.0 15.0" Properties=species:S:1:pos:R:3:forces:R:3 energy=        2.9087180526 pbc="T T T"
       O    -0.0059332900     0.0214770400     0.0000000000      2.509565146     -1.704885941     -0.000000000
       H     1.3541498200    -0.3015257800     0.0000000000     -5.487506371      2.782095062     -0.000000000
       H    -0.5386786100     0.8896199600     0.0000000000      2.977941225     -1.077209121     -0.000000000
