       3
Lattice="15.0 0.0 0.0 0.0 15.0 0.0 0.0 0.0 15.0" Properties=species:S:1:pos:R:3:forces:R:3 energy=        2.5138938760 pbc="T T T"
       O     0.0002393300    -0.0288142800     0.0000000000    -14.302317325      1.594790583     -0.000000000
       H     0.7455021500     0.2534991600     0.0000000000     16.720172258      2.413542728     -0.000000000
       H    -0.0279798500     1.1327499500     0.0000000000     -2.417854933     -4.008333312     -0.000000000
