       3
Lattice="15.0 0.0 0.0 0.0 15.0 0.0 0.0 0.0 15.0" Properties=species:S:1:pos:R:3:forces:R:3 energy=        1.8460174493 pbc="T T T"
       O    -0.0183339400    -0.0352648900     0.0000000000      4.527908151      7.683312142     -0.000000000
       H     1.0359218800     0.2772040500     0.0000000000     -3.206642707     -2.538676630     -0.000000000
       H    -0.0236276300     1.2114219800     0.0000000000     -1.321265444     -5.144635513     -0.000000000
