       3
Lattice="15.0 0.0 0.0 0.0 15.0 0.0 0.0 0.0 15.0" Properties=species:S:1:pos:R:3:forces:R:3 energy=        4.4456810426 pbc="T T T"
       O     0.0163034700    -0.0139498200     0.0000000000    -40.014859361      3.007021701     -0.000000000
       H     0.7073655200     0.0383011000     0.0000000000     39.128237620      2.371096880     -0.000000000
       H    -0.2447985500     1.1120391300     0.0000000000      0.886621741     -5.378118581     -0.000000000
