       3
Lattice="15.0 0.0 0.0 0.0 15.0 0.0 0.0 0.0 15.0" Properties=species:S:1:pos:R:3:forces:R:3 energy=        0.9037126546 pbc="T T T"
       O     0.0047406200     0.0061078400     0.0000000000     -6.340159143     -8.168572046     -0.000000000
       H     0.8494142000     0.0072961200     0.0000000000      9.069025866     -0.497165248     -0.000000000
       H    -0.2033375100     0.8247148000     0.0000000000     -2.728866722      8.665737295     -0.000000000
