       3
Lattice="15.0 0.0 0.0 0.0 15.0 0.0 0.0 0.0 15.0" Properties=species:S:1:pos:R:3:forces:R:3 energy=        0.8618686071 pbc="T T T"
       O    -0.0204538600    -0.0088702700     0.0000000000      6.132890284      0.196767029     -0.000000000
       H     1.1409549700     0.1386002600     0.0000000000     -4.955395443     -1.498643724     -0.000000000
       H    -0.0950200300     0.9311247300     0.0000000000     -1.177494841      1.301876695     -0.000000000
