       3
Lattice="15.0 0.0 0.0 0.0 15.0 0.0 0.0 0.0 15.0" Properties=species:S:1:pos:R:3:forces:R:3 energy=        4.2710996772 pbc="T T T"
       O     0.0140964000    -0.0167923200     0.0000000000    -37.449515031      1.602927666     -0.000000000
       H     0.7077392000     0.0741675200     0.0000000000     37.116051175      3.699969142     -0.000000000
       H    -0.2101434600     1.1212851000     0.0000000000      0.333463907     -5.302896808     -0.000000000
