       3
Lattice="15.0 0.0 0.0 0.0 15.0 0.0 0.0 0.0 15.0" Properties=species:S:1:pos:R:3:forces:R:3 energy=        2.5028172011 pbc="T T T"
       O     0.0112241600    -0.0263201100     0.0000000000    -10.975787569      4.951594065     -0.000000000
       H     0.8538333600     0.0261413300     0.0000000000      9.454836995      0.816400818     -0.000000000
       H    -0.3106541700     1.3205251600     0.0000000000      1.520950523     -5.767994883     -0.000000000
