       3
Lattice="15.0 0.0 0.0 0.0 15.0 0.0 0.0 0.0 15.0" Properties=species:S:1:pos:R:3:forces:R:3 energy=        1.3629615455 pbc="T T T"
       O    -0.0270628600    -0.0115581700     0.0000000000      6.494249799      0.807526497     -0.000000000
       H     1.2136956800     0.1720342000     0.0000000000     -5.302094470     -1.674149160     -0.000000000
       H    -0.0628702400     0.9403499200     0.0000000000     -1.192155278      0.866622663     -0.000000000
