       3
Lattice="15.0 0.0 0.0 0.0 15.0 0.0 0.0 0.0 15.0" Properties=species:S:1:pos:R:3:forces:R:3 energy=        0.3406356756 pbc="T T T"
       O    -0.0050165800     0.0051876400     0.0000000000      4.478610105     -3.111973976     -0.000000000
       H     1.0667195300    -0.0382993400     0.0000000000     -4.234160556      0.585813585     -0.000000000
       H    -0.2657901600     0.8849156800     0.0000000000     -0.244449548      2.526160339     -0.000000000
