       3
Lattice="15.0 0.0 0.0 0.0 15.0 0.0 0.0 0.0 15.0" Properties=species:S:1:pos:R:3:forces:R:3 energy=        1.4224047447 pbc="T T T"
       O     0.0005641400    -0.0167513700     0.0000000000      0.934440477      5.280411009     -0.000000000
       H     1.0335103600    -0.0121588800     0.0000000000     -2.850443655      0.467104616     -0.000000000
       H    -0.3211499800     1.2069634300     0.0000000000      1.916003230     -5.747515574     -0.000000000
