       3
Lattice="15.0 0.0 0.0 0.0 15.0 0.0 0.0 0.0 15.0" Properties=species:S:1:pos:R:3:forces:R:3 energy=        0.0576173016 pbc="T T T"
       O    -0.0044141400    -0.0056850000     0.0000000000      0.783421057      1.009500527     -0.000000000
       H     0.9595789900     0.0717328300     0.0000000000     -0.074448384     -0.750897769     -0.000000000
       H    -0.1682078000     0.9474393600     0.0000000000     -0.708972673     -0.258602758     -0.000000000
