       3
Lattice="15.0 0.0 0.0 0.0 15.0 0.0 0.0 0.0 15.0" Properties=species:S:1:pos:R:3:forces:R:3 energy=        2.3149590195 pbc="T T T"
       O    -0.0352398500    -0.0104424300     0.0000000000      5.765199938      1.352719564     -0.000000000
       H     1.3945285400     0.1288707800     0.0000000000     -5.444551393     -0.780913819     -0.000000000
       H    -0.1139294100     0.9658065900     0.0000000000     -0.320648546     -0.571805745     -0.000000000
