       3
Lattice="15.0 0.0 0.0 0.0 15.0 0.0 0.0 0.0 15.0" Properties=species:S:1:pos:R:3:forces:R:3 energy=        3.0361253701 pbc="T T T"
       O     0.0175066800    -0.0240550400     0.0000000000     -8.750182904      4.408475622     -0.000000000
       H     0.8897627200    -0.0863215600     0.0000000000      6.395534664      0.676090973     -0.000000000
       H    -0.4462945900     1.3970406700     0.0000000000      2.354648240     -5.084566595     -0.000000000
