       3
Lattice="15.0 0.0 0.0 0.0 15.0 0.0 0.0 0.0 15.0" Properties=species:S:1:pos:R:3:forces:R:3 energy=        1.1467175562 pbc="T T T"
       O    -0.0009899800    -0.0187481900     0.0000000000     -8.743488879      3.148748739     -0.000000000
       H     0.8165439000     0.1817654400     0.0000000000     10.522689867     -0.032862262     -0.000000000
       H    -0.0795136400     1.0447280300     0.0000000000     -1.779200988     -3.115886476     -0.000000000
