       3
Lattice="15.0 0.0 0.0 0.0 15.0 0.0 0.0 0.0 15.0" Properties=species:S:1:pos:R:3:forces:R:3 energy=        2.2635723307 pbc="T T T"
       O    -0.0330327800    -0.0075999200     0.0000000000      5.691064561      0.695351733     -0.000000000
       H     1.3941548600     0.0930043600     0.0000000000     -5.582612396     -0.483911308     -0.000000000
       H    -0.1485844900     0.9565606200     0.0000000000     -0.108452114     -0.211440425     -0.000000000
