       3
Lattice="15.0 0.0 0.0 0.0 15.0 0.0 0.0 0.0 15.0" Properties=species:S:1:pos:R:3:forces:R:3 energy=        5.3109061387 pbc="T T T"
       O     0.0145100300     0.0128676400     0.0000000000    -33.001635023    -16.576924926     -0.000000000
       H     0.7037285300    -0.0212737300     0.0000000000     39.494494420     -2.555659751     -0.000000000
       H    -0.2127003200     0.7460012000     0.0000000000     -6.492859398     19.132584729     -0.000000000
