       3
Lattice="15.0 0.0 0.0 0.0 15.0 0.0 0.0 0.0 15.0" Properties=species:S:1:pos:R:3:forces:R:3 energy=        7.1441132376 pbc="T T T"
       O    -0.0254199200     0.0080357000     0.0000000000      6.471882374    -55.113523764     -0.000000000
       H     1.1386432700     0.1483266700     0.0000000000     -4.555512556     -2.178262715     -0.000000000
       H    -0.0138933200     0.6530879400     0.0000000000     -1.916369869     57.291786479     -0.000000000
