       3
Lattice="15.0 0.0 0.0 0.0 15.0 0.0 0.0 0.0 15.0" Properties=species:S:1:pos:R:3:forces:R:3 energy=        4.6813307229 pbc="T T T"
       O    -0.0169059100     0.0248224600     0.0000000000     17.117843429    -29.117697037     -0.000000000
       H     1.3174382900    -0.1483332700     0.0000000000     -6.353030658      1.862581029     -0.000000000
       H    -0.3278197500     0.6833320300     0.0000000000    -10.764812772     27.255116009     -0.000000000
