       3
Lattice="15.0 0.0 0.0 0.0 15.0 0.0 0.0 0.0 15.0" Properties=species:S:1:pos:R:3:forces:R:3 energy=        1.6813119993 pbc="T T T"
       O    -0.0088665900    -0.0172487300     0.0000000000      3.661989457      5.506921037     -0.000000000
       H     1.1421456300     0.0212746100     0.0000000000     -5.198664648      0.104040973     -0.000000000
       H    -0.2801120000     1.1814236300     0.0000000000      1.536675140     -5.610962010     -0.000000000
