       3
Lattice="15.0 0.0 0.0 0.0 15.0 0.0 0.0 0.0 15.0" Properties=species:S:1:pos:R:3:forces:R:3 energy=        4.5695491356 pbc="T T T"
       O     0.0365057900     0.0178951300     0.0000000000    -38.543254399     17.620533621     -0.000000000
       H     0.6669519900    -0.2796330100     0.0000000000     34.494557320    -13.831383975     -0.000000000
       H    -0.5250191400     0.9245720100     0.0000000000      4.048697079     -3.789149646     -0.000000000
