       3
Lattice="15.0 0.0 0.0 0.0 15.0 0.0 0.0 0.0 15.0" Properties=species:S:1:pos:R:3:forces:R:3 energy=        0.9374828173 pbc="T T T"
       O    -0.0087916500     0.0061487900     0.0000000000      5.061664123     -1.682510957     -0.000000000
       H     1.1751853600    -0.0790302800     0.0000000000     -5.852531972      1.159927565     -0.000000000
       H    -0.3143440200     0.9103931300     0.0000000000      0.790867798      0.522583392     -0.000000000
