       3
Lattice="15.0 0.0 0.0 0.0 15.0 0.0 0.0 0.0 15.0" Properties=species:S:1:pos:R:3:forces:R:3 energy=        5.8362965400 pbc="T T T"
       O    -0.0027834200     0.0080692700     0.0000000000     -5.662706616    -44.577903710     -0.000000000
       H     0.8129069100     0.1221906100     0.0000000000     12.973464295     -1.665185981     -0.000000000
       H    -0.0474154100     0.6786901000     0.0000000000     -7.310757627     46.243089692     -0.000000000
