       3
Lattice="15.0 0.0 0.0 0.0 15.0 0.0 0.0 0.0 15.0" Properties=species:S:1:pos:R:3:forces:R:3 energy=        2.1291761605 pbc="T T T"
       O    -0.0018195300     0.0267783300     0.0000000000      7.968907331     -9.862023258     -0.000000000
       H     1.2086335900    -0.2559312000     0.0000000000     -6.140294756      2.938449936     -0.000000000
       H    -0.4584495700     0.7598891000     0.0000000000     -1.828612575      6.923573322     -0.000000000
