       3
Lattice="15.0 0.0 0.0 0.0 15.0 0.0 0.0 0.0 15.0" Properties=species:S:1:pos:R:3:forces:R:3 energy=        2.1148500570 pbc="T T T"
       O     0.0166282800    -0.0018869100     0.0000000000     -2.256575160      3.006206043     -0.000000000
       H     0.9953737300    -0.2273569400     0.0000000000     -1.611047522      2.146477951     -0.000000000
       H    -0.5379686700     1.1862526200     0.0000000000      3.867622683     -5.152683995     -0.000000000
