       3
Lattice="15.0 0.0 0.0 0.0 15.0 0.0 0.0 0.0 15.0" Properties=species:S:1:pos:R:3:forces:R:3 energy=        0.9215756316 pbc="T T T"
       O     0.0226731400     0.0175523700     0.0000000000     -9.438957855      2.295914086     -0.000000000
       H     0.8479542800    -0.2486319900     0.0000000000      6.340039381     -0.093699374     -0.000000000
       H    -0.4864864500     0.8990114200     0.0000000000      3.098918473     -2.202214712     -0.000000000
