       3
Lattice="15.0 0.0 0.0 0.0 15.0 0.0 0.0 0.0 15.0" Properties=species:S:1:pos:R:3:forces:R:3 energy=        2.5654587477 pbc="T T T"
       O    -0.0037367600     0.0068398800     0.0000000000      0.794904123    -25.008042107     -0.000000000
       H     0.8854781800     0.0814601200     0.0000000000      5.020162899     -1.366941731     -0.000000000
       H    -0.1048574700     0.7389325400     0.0000000000     -5.815067022     26.374983838     -0.000000000
