       3
Lattice="15.0 0.0 0.0 0.0 15.0 0.0 0.0 0.0 15.0" Properties=species:S:1:pos:R:3:forces:R:3 energy=        3.7239003351 pbc="T T T"
       O    -0.0273144000     0.0114165100     0.0000000000     10.503831896    -21.583734486     -0.000000000
       H     1.3554054900    -0.0072996500     0.0000000000     -6.096415209      0.370534707     -0.000000000
       H    -0.2005929000     0.7550601100     0.0000000000     -4.407416636     21.213199779     -0.000000000
