       3
Lattice="15.0 0.0 0.0 0.0 15.0 0.0 0.0 0.0 15.0" Properties=species:S:1:pos:R:3:forces:R:3 energy=        0.7437835322 pbc="T T T"
       O     0.0182590000     0.0118673600     0.0000000000    -10.393964030      2.157045036     -0.000000000
       H     0.8487016400    -0.1768991600     0.0000000000      7.982510581     -0.207117318     -0.000000000
       H    -0.4171762900     0.9175033500     0.0000000000      2.411453449     -1.949927718     -0.000000000
