       3
Lattice="15.0 0.0 0.0 0.0 15.0 0.0 0.0 0.0 15.0" Properties=species:S:1:pos:R:3:forces:R:3 energy=        2.6761848189 pbc="T T T"
       O     0.0006773800     0.0125248800     0.0000000000      2.630804853    -27.186264353     -0.000000000
       H     0.8847308200     0.0097272800     0.0000000000      5.057965332     -0.664623333     -0.000000000
       H    -0.1741676400     0.7204406100     0.0000000000     -7.688770237     27.850887686     -0.000000000
