       3
Lattice="15.0 0.0 0.0 0.0 15.0 0.0 0.0 0.0 15.0" Properties=species:S:1:pos:R:3:forces:R:3 energy=        4.0860276477 pbc="T T T"
       O    -0.0080898400     0.0303528700     0.0000000000     17.762985659    -25.659625673     -0.000000000
       H     1.2443238900    -0.2176336200     0.0000000000     -6.423491773      2.633564933     -0.000000000
       H    -0.3946246200     0.6648608700     0.0000000000    -11.339493886     23.026060740     -0.000000000
