       3
Lattice="15.0 0.0 0.0 0.0 15.0 0.0 0.0 0.0 15.0" Properties=species:S:1:pos:R:3:forces:R:3 energy=        2.5098629554 pbc="T T T"
       O    -0.0084285300     0.0240904300     0.0000000000      8.334394754    -10.495213657     -0.000000000
       H     1.2813743000    -0.2224972600     0.0000000000     -6.188112104      2.525381552     -0.000000000
       H    -0.4262997900     0.7691142800     0.0000000000     -2.146282702      7.969832106     -0.000000000
