       3
Lattice="15.0 0.0 0.0 0.0 15.0 0.0 0.0 0.0 15.0" Properties=species:S:1:pos:R:3:forces:R:3 energy=        2.5037890639 pbc="T T T"
       O    -0.0024969100     0.0142534500     0.0000000000      2.135712223      0.288452406     -0.000000000
       H     1.2827343900    -0.2656584800     0.0000000000     -5.742036808      2.714505253     -0.000000000
       H    -0.5217999000     0.9683959100     0.0000000000      3.606324585     -3.002957659     -0.000000000
