       3
Lattice="15.0 0.0 0.0 0.0 15.0 0.0 0.0 0.0 15.0" Properties=species:S:1:pos:R:3:forces:R:3 energy=        2.8748276727 pbc="T T T"
       O    -0.0370960200    -0.0011828900     0.0000000000      6.467216900     -7.597288646     -0.000000000
       H     1.4294714800     0.0954355200     0.0000000000     -5.430448371     -0.506256262     -0.000000000
       H    -0.1194146200     0.8522864300     0.0000000000     -1.036768529      8.103544908     -0.000000000
