       3
Lattice="15.0 0.0 0.0 0.0 15.0 0.0 0.0 0.0 15.0" Properties=species:S:1:pos:R:3:forces:R:3 energy=        3.8505185740 pbc="T T T"
       O    -0.0235393300     0.0104553600     0.0000000000     11.338770686    -28.195998131     -0.000000000
       H     1.2469396600     0.0334312900     0.0000000000     -6.112719559     -0.196903709     -0.000000000
       H    -0.1520390300     0.7295826500     0.0000000000     -5.226051127     28.392901840     -0.000000000
