       3
Lattice="15.0 0.0 0.0 0.0 15.0 0.0 0.0 0.0 15.0" Properties=species:S:1:pos:R:3:forces:R:3 energy=        0.5221237397 pbc="T T T"
       O    -0.0160519300    -0.0090248600     0.0000000000      5.223368436      0.360494287     -0.000000000
       H     1.0685879400     0.1410327400     0.0000000000     -3.808558347     -1.661549926     -0.000000000
       H    -0.0925147400     0.9311455200     0.0000000000     -1.414810089      1.301055638     -0.000000000
