       3
Lattice="15.0 0.0 0.0 0.0 15.0 0.0 0.0 0.0 15.0" Properties=species:S:1:pos:R:3:forces:R:3 energy=        2.6358743288 pbc="T T T"
       O    -0.0248191500     0.0088031300     0.0000000000      5.638328330     -4.329245756     -0.000000000
       H     1.4281810100    -0.0863281600     0.0000000000     -5.694216735      1.055406259     -0.000000000
       H    -0.3129717200     0.8755657800     0.0000000000      0.055888404      3.273839497     -0.000000000
