       3
Lattice="15.0 0.0 0.0 0.0 15.0 0.0 0.0 0.0 15.0" Properties=species:S:1:pos:R:3:forces:R:3 energy=        1.6387668096 pbc="T T T"
       O    -0.0283043800    -0.0073316800     0.0000000000      6.794584307     -4.427783022     -0.000000000
       H     1.2131177500     0.1744658000     0.0000000000     -5.212192823     -1.810876274     -0.000000000
       H    -0.0425885700     0.8708407200     0.0000000000     -1.582391535      6.238659296     -0.000000000
