       3
Lattice="15.0 0.0 0.0 0.0 15.0 0.0 0.0 0.0 15.0" Properties=species:S:1:pos:R:3:forces:R:3 energy=        1.4093077849 pbc="T T T"
       O    -0.0223222400    -0.0054503300     0.0000000000      6.353012968     -7.837628130     -0.000000000
       H     1.1042782400     0.1793303200     0.0000000000     -4.114933150     -2.289516612     -0.000000000
       H    -0.0286897800     0.8361172900     0.0000000000     -2.238079818     10.127144742     -0.000000000
