       3
Lattice="15.0 0.0 0.0 0.0 15.0 0.0 0.0 0.0 15.0" Properties=species:S:1:pos:R:3:forces:R:3 energy=        1.1659781018 pbc="T T T"
       O     0.0144961500     0.0186681100     0.0000000000     -0.128518658     -0.163964160     -0.000000000
       H     1.0287871400    -0.2917954100     0.0000000000     -3.642796214      2.960754883     -0.000000000
       H    -0.5375456100     0.9244680900     0.0000000000      3.771314872     -2.796790723     -0.000000000
