       3
Lattice="15.0 0.0 0.0 0.0 15.0 0.0 0.0 0.0 15.0" Properties=species:S:1:pos:R:3:forces:R:3 energy=        2.4181720052 pbc="T T T"
       O     0.0021077100    -0.0322342200     0.0000000000    -12.194102755      3.445488739     -0.000000000
       H     0.7821788800     0.2127691000     0.0000000000     13.268815642      1.785040326     -0.000000000
       H    -0.0943101000     1.2277573900     0.0000000000     -1.074712887     -5.230529065     -0.000000000
