       3
Lattice="15.0 0.0 0.0 0.0 15.0 0.0 0.0 0.0 15.0" Properties=species:S:1:pos:R:3:forces:R:3 energy=        2.8587377026 pbc="T T T"
       O     0.0036374000    -0.0419166000     0.0000000000     -6.506486765      4.474595171     -0.000000000
       H     0.8559060000     0.1671754000     0.0000000000      6.293694814      0.717146933     -0.000000000
       H    -0.1923155100     1.4270182400     0.0000000000      0.212791951     -5.191742104     -0.000000000
