       3
Lattice="15.0 0.0 0.0 0.0 15.0 0.0 0.0 0.0 15.0" Properties=species:S:1:pos:R:3:forces:R:3 energy=        1.6084805859 pbc="T T T"
       O    -0.0100942200    -0.0188227100     0.0000000000     -3.910579872     -0.489908461     -0.000000000
       H     0.8165090900     0.2942278900     0.0000000000      8.407147392     -2.244703652     -0.000000000
       H     0.0650149700     0.9334475400     0.0000000000     -4.496567520      2.734612112     -0.000000000
