       3
Lattice="15.0 0.0 0.0 0.0 15.0 0.0 0.0 0.0 15.0" Properties=species:S:1:pos:R:3:forces:R:3 energy=        6.5912219619 pbc="T T T"
       O     0.0068361100    -0.0319659800     0.0000000000    -38.786749399    -13.185671114     -0.000000000
       H     0.6011417700     0.2942305400     0.0000000000     42.388657546     16.174971632     -0.000000000
       H     0.0116858300     1.1420374900     0.0000000000     -3.601908147     -2.989300518     -0.000000000
