       3
Lattice="15.0 0.0 0.0 0.0 15.0 0.0 0.0 0.0 15.0" Properties=species:S:1:pos:R:3:forces:R:3 energy=        2.0041695295 pbc="T T T"
       O    -0.0030854700     0.0193256300     0.0000000000     11.397779845    -21.015217080     -0.000000000
       H     1.0648163200    -0.1051689700     0.0000000000     -4.603753674      1.388415337     -0.000000000
       H    -0.2945369700     0.7274053400     0.0000000000     -6.794026120     19.626801743     -0.000000000
