       3
Lattice="15.0 0.0 0.0 0.0 15.0 0.0 0.0 0.0 15.0" Properties=species:S:1:pos:R:3:forces:R:3 energy=        1.9970819594 pbc="T T T"
       O     0.0101203100     0.0188618400     0.0000000000     -1.393661059    -18.219454799     -0.000000000
       H     0.8477152300    -0.0978715300     0.0000000000      8.351706103     -0.433299016     -0.000000000
       H    -0.2870210800     0.7274676900     0.0000000000     -6.958045044     18.652753763     -0.000000000
