       3
Lattice="15.0 0.0 0.0 0.0 15.0 0.0 0.0 0.0 15.0" Properties=species:S:1:pos:R:3:forces:R:3 energy=       39.1003136804 pbc="T T T"
       O    -0.0130925400     0.0297400500     0.0000000000     66.371043798   -297.367892643     -0.000000000
       H     1.0271531800     0.0145887200     0.0000000000     -3.703701409     -0.477910556     -0.000000000
       H    -0.0980515200     0.4423622400     0.0000000000    -62.667342389    297.845803250     -0.000000000
