       3
Lattice="15.0 0.0 0.0 0.0 15.0 0.0 0.0 0.0 15.0" Properties=species:S:1:pos:R:3:forces:R:3 energy=        2.7812075822 pbc="T T T"
       O    -0.0015052700     0.0213615800     0.0000000000     13.834296213    -28.410451890     -0.000000000
       H     1.0283438400    -0.1027369300     0.0000000000     -3.702214179      1.265163535     -0.000000000
       H    -0.2831434800     0.6926611300     0.0000000000    -10.132082034     27.145288303     -0.000000000
