       3
Lattice="15.0 0.0 0.0 0.0 15.0 0.0 0.0 0.0 15.0" Properties=species:S:1:pos:R:3:forces:R:3 energy=        1.0997248478 pbc="T T T"
       O     0.0201273800     0.0084474200     0.0000000000     -8.082875697      3.674479574     -0.000000000
       H     0.8853783700    -0.2176292200     0.0000000000      4.248166185      0.759222131     -0.000000000
       H    -0.4835065300     1.0125107900     0.0000000000      3.834709513     -4.433701704     -0.000000000
