       3
Lattice="15.0 0.0 0.0 0.0 15.0 0.0 0.0 0.0 15.0" Properties=species:S:1:pos:R:3:forces:R:3 energy=        1.2938592103 pbc="T T T"
       O    -0.0173683900    -0.0281959000     0.0000000000      4.441651405      7.067510173     -0.000000000
       H     1.0349702800     0.2437692300     0.0000000000     -3.072633045     -2.395882121     -0.000000000
       H    -0.0380010300     1.1326668100     0.0000000000     -1.369018360     -4.671628052     -0.000000000
