       3
Lattice="15.0 0.0 0.0 0.0 15.0 0.0 0.0 0.0 15.0" Properties=species:S:1:pos:R:3:forces:R:3 energy=       25.5394908926 pbc="T T T"
       O     0.0415101600     0.0068678900     0.0000000000   -188.100087647     73.519973133     -0.000000000
       H     0.4874444100    -0.1671683500     0.0000000000    184.395959383    -68.780193074     -0.000000000
       H    -0.4249314900     0.9871164800     0.0000000000      3.704128264     -4.739780110     -0.000000000
