       3
Lattice="15.0 0.0 0.0 0.0 15.0 0.0 0.0 0.0 15.0" Properties=species:S:1:pos:R:3:forces:R:3 energy=        3.0915141545 pbc="T T T"
       O     0.0005152900    -0.0401097700     0.0000000000    -12.181700364      1.995339077     -0.000000000
       H     0.7470316900     0.2845023700     0.0000000000     13.937472267      2.735279057     -0.000000000
       H    -0.0338881200     1.2810143200     0.0000000000     -1.755771954     -4.730618186     -0.000000000
