       3
Lattice="15.0 0.0 0.0 0.0 15.0 0.0 0.0 0.0 15.0" Properties=species:S:1:pos:R:3:forces:R:3 energy=        2.4836195982 pbc="T T T"
       O    -0.0030732600     0.0251652300     0.0000000000     13.195354099    -20.074121248     -0.000000000
       H     1.1364359900    -0.1793342800     0.0000000000     -5.884328512      2.327076745     -0.000000000
       H    -0.3663524300     0.7088926200     0.0000000000     -7.311025587     17.747044555     -0.000000000
