       3
Lattice="15.0 0.0 0.0 0.0 15.0 0.0 0.0 0.0 15.0" Properties=species:S:1:pos:R:3:forces:R:3 energy=        2.7633141639 pbc="T T T"
       O     0.0232755800     0.0066797200     0.0000000000    -30.192449108      7.338128473     -0.000000000
       H     0.7408137400    -0.1385998200     0.0000000000     27.607116756     -4.042388257     -0.000000000
       H    -0.3889041000     0.9615351000     0.0000000000      2.585332404     -3.295740215     -0.000000000
