       3
Lattice="15.0 0.0 0.0 0.0 15.0 0.0 0.0 0.0 15.0" Properties=species:S:1:pos:R:3:forces:R:3 energy=        2.7008267099 pbc="T T T"
       O     0.0166404900     0.0039526900     0.0000000000     -0.438536098      1.698383670     -0.000000000
       H     1.0669934000    -0.3015222600     0.0000000000     -3.828425219      3.024499965     -0.000000000
       H    -0.6097841400     1.1677398900     0.0000000000      4.266961318     -4.722883635     -0.000000000
