       3
Lattice="15.0 0.0 0.0 0.0 15.0 0.0 0.0 0.0 15.0" Properties=species:S:1:pos:R:3:forces:R:3 energy=        0.9494183299 pbc="T T T"
       O    -0.0198270000    -0.0080637100     0.0000000000      5.964726534      1.290788036     -0.000000000
       H     1.1770537700     0.1003018100     0.0000000000     -5.463403090     -0.934785571     -0.000000000
       H    -0.1410686000     0.9566229700     0.0000000000     -0.501323444     -0.356002465     -0.000000000
