       3
Lattice="15.0 0.0 0.0 0.0 15.0 0.0 0.0 0.0 15.0" Properties=species:S:1:pos:R:3:forces:R:3 energy=        5.8179743138 pbc="T T T"
       O     0.0147110500    -0.0218253700     0.0000000000    -46.341190231     -1.987452060     -0.000000000
       H     0.6722183300     0.1100343700     0.0000000000     46.429244488      7.486962815     -0.000000000
       H    -0.1843765700     1.1652960600     0.0000000000     -0.088054206     -5.499510754     -0.000000000
