       3
Lattice="15.0 0.0 0.0 0.0 15.0 0.0 0.0 0.0 15.0" Properties=species:S:1:pos:R:3:forces:R:3 energy=        2.3400254626 pbc="T T T"
       O    -0.0219974300     0.0066125800     0.0000000000      5.049182646     -1.986442645     -0.000000000
       H     1.3922864500    -0.0863277200     0.0000000000     -5.850938916      1.087427204     -0.000000000
       H    -0.3218599100     0.9103307800     0.0000000000      0.801756270      0.899015441     -0.000000000
