       3
Lattice="15.0 0.0 0.0 0.0 15.0 0.0 0.0 0.0 15.0" Properties=species:S:1:pos:R:3:forces:R:3 energy=        3.9126119337 pbc="T T T"
       O     0.0011926700    -0.0275848900     0.0000000000    -22.443413110     -4.186709077     -0.000000000
       H     0.6729308800     0.2942296500     0.0000000000     26.431910146      6.216466397     -0.000000000
       H     0.0294622100     1.0725075100     0.0000000000     -3.988497087     -2.029757320     -0.000000000
