       3
Lattice="15.0 0.0 0.0 0.0 15.0 0.0 0.0 0.0 15.0" Properties=species:S:1:pos:R:3:forces:R:3 energy=        4.6439664476 pbc="T T T"
       O     0.0238275100    -0.0159112500     0.0000000000    -33.408132075      7.225043178     -0.000000000
       H     0.7438728000    -0.0765933900     0.0000000000     30.745208266     -1.345949692     -0.000000000
       H    -0.4007206400     1.2580638400     0.0000000000      2.662923809     -5.879093537     -0.000000000
