       3
Lattice="15.0 0.0 0.0 0.0 15.0 0.0 0.0 0.0 15.0" Properties=species:S:1:pos:R:3:forces:R:3 energy=       22.2628291916 pbc="T T T"
       O     0.0188126000    -0.0223636700     0.0000000000   -141.890058810    -72.124137897     -0.000000000
       H     0.4550824200     0.2297942700     0.0000000000    146.170953353     73.733546134     -0.000000000
       H    -0.0323320700     1.0540779200     0.0000000000     -4.280894544     -1.609408289     -0.000000000
