       3
Lattice="15.0 0.0 0.0 0.0 15.0 0.0 0.0 0.0 15.0" Properties=species:S:1:pos:R:3:forces:R:3 energy=        2.9829872857 pbc="T T T"
       O    -0.0475045100    -0.0145888400     0.0000000000      5.494162240     -0.329839678     -0.000000000
       H     1.4674386900     0.2364691500     0.0000000000     -4.544600635     -1.404787976     -0.000000000
       H     0.0078122300     0.9240145100     0.0000000000     -0.949561605      1.734627603     -0.000000000
