       3
Lattice="15.0 0.0 0.0 0.0 15.0 0.0 0.0 0.0 15.0" Properties=species:S:1:pos:R:3:forces:R:3 energy=       12.5893845880 pbc="T T T"
       O    -0.0172063000     0.0244387500     0.0000000000     33.675449180    -96.090679307     -0.000000000
       H     1.1726694100    -0.0310058600     0.0000000000     -6.213617511      0.579336150     -0.000000000
       H    -0.1782805500     0.5720931000     0.0000000000    -27.461831618     95.511343156     -0.000000000
