       3
Lattice="15.0 0.0 0.0 0.0 15.0 0.0 0.0 0.0 15.0" Properties=species:S:1:pos:R:3:forces:R:3 energy=        8.7181020965 pbc="T T T"
       O     0.0317407500     0.0001080900     0.0000000000    -72.183360766     19.229179063     -0.000000000
       H     0.6331300800    -0.1385985000     0.0000000000     68.733047299    -13.786651901     -0.000000000
       H    -0.4155686700     1.0658300800     0.0000000000      3.450313468     -5.442527162     -0.000000000
