       3
Lattice="15.0 0.0 0.0 0.0 15.0 0.0 0.0 0.0 15.0" Properties=species:S:1:pos:R:3:forces:R:3 energy=        2.4774369345 pbc="T T T"
       O    -0.0386884400    -0.0090584300     0.0000000000      6.093546114     -2.088867678     -0.000000000
       H     1.3943242900     0.1671687900     0.0000000000     -5.238935856     -1.143906294     -0.000000000
       H    -0.0589926400     0.9055433600     0.0000000000     -0.854610257      3.232773972     -0.000000000
