       3
Lattice="15.0 0.0 0.0 0.0 15.0 0.0 0.0 0.0 15.0" Properties=species:S:1:pos:R:3:forces:R:3 energy=        8.4568814278 pbc="T T T"
       O     0.0282921600     0.0014920800     0.0000000000    -73.999622887     14.963725184     -0.000000000
       H     0.6329258400    -0.1003004800     0.0000000000     71.429804938    -10.578636481     -0.000000000
       H    -0.3606319100     1.0055668400     0.0000000000      2.569817949     -4.385088651     -0.000000000
