       3
Lattice="15.0 0.0 0.0 0.0 15.0 0.0 0.0 0.0 15.0" Properties=species:S:1:pos:R:3:forces:R:3 energy=        1.7479091781 pbc="T T T"
       O     0.0044507800     0.0232038000     0.0000000000      3.263646148     -2.984032428     -0.000000000
       H     1.1729432800    -0.2942287700     0.0000000000     -5.742223573      3.218465776     -0.000000000
       H    -0.5222745300     0.8549173200     0.0000000000      2.478577425     -0.234433348     -0.000000000
