       3
Lattice="15.0 0.0 0.0 0.0 15.0 0.0 0.0 0.0 15.0" Properties=species:S:1:pos:R:3:forces:R:3 energy=       11.4309870722 pbc="T T T"
       O    -0.0172185100     0.0185991600     0.0000000000     20.560043674    -91.631393417     -0.000000000
       H     1.1010497500     0.0431594600     0.0000000000     -4.941955509     -0.726482048     -0.000000000
       H    -0.1064650900     0.5906058200     0.0000000000    -15.618088114     92.357875464     -0.000000000
