       3
Lattice="15.0 0.0 0.0 0.0 15.0 0.0 0.0 0.0 15.0" Properties=species:S:1:pos:R:3:forces:R:3 energy=        1.4207578300 pbc="T T T"
       O     0.0015419000    -0.0038427800     0.0000000000      1.747901700      3.534355054     -0.000000000
       H     1.1041784300    -0.1197590100     0.0000000000     -4.679872247      1.562803834     -0.000000000
       H    -0.4073388500     1.1096955400     0.0000000000      2.931970547     -5.097158888     -0.000000000
