       3
Lattice="15.0 0.0 0.0 0.0 15.0 0.0 0.0 0.0 15.0" Properties=species:S:1:pos:R:3:forces:R:3 energy=        3.5072519819 pbc="T T T"
       O     0.0323798300     0.0067542400     0.0000000000    -26.887743246     11.000401986     -0.000000000
       H     0.7408485500    -0.2510622700     0.0000000000     22.424231695     -5.687225850     -0.000000000
       H    -0.5334327000     1.0728155900     0.0000000000      4.463511551     -5.313176135     -0.000000000
