       3
Lattice="15.0 0.0 0.0 0.0 15.0 0.0 0.0 0.0 15.0" Properties=species:S:1:pos:R:3:forces:R:3 energy=        4.5912313666 pbc="T T T"
       O     0.0330572100     0.0192791200     0.0000000000    -41.108063630     15.064802239     -0.000000000
       H     0.6667477400    -0.2413349900     0.0000000000     38.532840603    -13.586691869     -0.000000000
       H    -0.4700823800     0.8643087800     0.0000000000      2.575223027     -1.478110370     -0.000000000
