       3
Lattice="15.0 0.0 0.0 0.0 15.0 0.0 0.0 0.0 15.0" Properties=species:S:1:pos:R:3:forces:R:3 energy=       10.2648506219 pbc="T T T"
       O    -0.0266736500     0.0064226000     0.0000000000     -5.336351402    -73.809353553     -0.000000000
       H     1.0664456700     0.2249235800     0.0000000000     -2.146791678     -3.797186970     -0.000000000
       H     0.0782038200     0.6020914600     0.0000000000      7.483143079     77.606540471     -0.000000000
