       3
Lattice="15.0 0.0 0.0 0.0 15.0 0.0 0.0 0.0 15.0" Properties=species:S:1:pos:R:3:forces:R:3 energy=        1.2399831260 pbc="T T T"
       O    -0.0201273800    -0.0084474200     0.0000000000      5.075074387     -6.139853298     -0.000000000
       H     1.0322848900     0.2176292200     0.0000000000     -2.384892449     -2.941664227     -0.000000000
       H     0.0084706000     0.8453840500     0.0000000000     -2.690181937      9.081517576     -0.000000000
