       3
Lattice="15.0 0.0 0.0 0.0 15.0 0.0 0.0 0.0 15.0" Properties=species:S:1:pos:R:3:forces:R:3 energy=        3.4797598261 pbc="T T T"
       O    -0.0411836800    -0.0064450500     0.0000000000      5.011625753    -14.155883984     -0.000000000
       H     1.3215487700     0.2461973100     0.0000000000     -4.626878443     -2.217528210     -0.000000000
       H     0.0533861800     0.7850376800     0.0000000000     -0.384747309     16.373412193     -0.000000000
