       3
Lattice="15.0 0.0 0.0 0.0 15.0 0.0 0.0 0.0 15.0" Properties=species:S:1:pos:R:3:forces:R:3 energy=        2.1668188409 pbc="T T T"
       O    -0.0267119600     0.0005438700     0.0000000000      7.697526956    -11.409488397     -0.000000000
       H     1.2482649400     0.1027325300     0.0000000000     -5.752215347     -0.966997960     -0.000000000
       H    -0.1030105400     0.8175837900     0.0000000000     -1.945311608     12.376486409     -0.000000000
