       3
Lattice="15.0 0.0 0.0 0.0 15.0 0.0 0.0 0.0 15.0" Properties=species:S:1:pos:R:3:forces:R:3 energy=        2.7406176203 pbc="T T T"
       O    -0.0194516700     0.0157175200     0.0000000000      8.423621024    -11.245071877     -0.000000000
       H     1.3548623700    -0.1173304900     0.0000000000     -6.105396179      1.450033808     -0.000000000
       H    -0.3248398300     0.7968314000     0.0000000000     -2.318224844      9.795038070     -0.000000000
