       3
Lattice="15.0 0.0 0.0 0.0 15.0 0.0 0.0 0.0 15.0" Properties=species:S:1:pos:R:3:forces:R:3 energy=       17.3199783741 pbc="T T T"
       O    -0.0235132400     0.0104944900     0.0000000000    -21.663732599   -122.298551387     -0.000000000
       H     0.9935007100     0.2297876600     0.0000000000      0.485474591     -4.552164156     -0.000000000
       H     0.1009907900     0.5326030400     0.0000000000     21.178258008    126.850715543     -0.000000000
