       3
Lattice="15.0 0.0 0.0 0.0 15.0 0.0 0.0 0.0 15.0" Properties=species:S:1:pos:R:3:forces:R:3 energy=        3.3030251258 pbc="T T T"
       O     0.0085156800     0.0051466900     0.0000000000    -23.710379967    -12.879576048     -0.000000000
       H     0.7409483700     0.0480270600     0.0000000000     28.030685941     -0.140133879     -0.000000000
       H    -0.1547836400     0.7992373400     0.0000000000     -4.320305974     13.019709926     -0.000000000
