       3
Lattice="15.0 0.0 0.0 0.0 15.0 0.0 0.0 0.0 15.0" Properties=species:S:1:pos:R:3:forces:R:3 energy=        2.5832700774 pbc="T T T"
       O     0.0006895900     0.0183644800     0.0000000000      9.905198117    -28.196658647     -0.000000000
       H     0.9563504900    -0.0644380300     0.0000000000     -0.494878200      0.468898578     -0.000000000
       H    -0.2459831000     0.7019278800     0.0000000000     -9.410319968     27.727760069     -0.000000000
