       3
Lattice="15.0 0.0 0.0 0.0 15.0 0.0 0.0 0.0 15.0" Properties=species:S:1:pos:R:3:forces:R:3 energy=       13.4552248302 pbc="T T T"
       O     0.0102074700     0.0480989600     0.0000000000     77.897416194    -77.764795905     -0.000000000
       H     0.9523746300    -0.2723417300     0.0000000000     -2.998605859      2.321976394     -0.000000000
       H    -0.3930685700     0.4379244700     0.0000000000    -74.898810335     75.442819511     -0.000000000
