       3
Lattice="15.0 0.0 0.0 0.0 15.0 0.0 0.0 0.0 15.0" Properties=species:S:1:pos:R:3:forces:R:3 energy=        0.5669210880 pbc="T T T"
       O    -0.0106844500    -0.0021104700     0.0000000000      4.065755431     -6.246060117     -0.000000000
       H     0.9952693000     0.1100304100     0.0000000000     -1.685061081     -1.489628455     -0.000000000
       H    -0.1043828500     0.8524111300     0.0000000000     -2.380694350      7.735688572     -0.000000000
