       3
Lattice="15.0 0.0 0.0 0.0 15.0 0.0 0.0 0.0 15.0" Properties=species:S:1:pos:R:3:forces:R:3 energy=        4.0266471217 pbc="T T T"
       O     0.0127921600    -0.0301237600     0.0000000000    -26.011832417      2.014571041     -0.000000000
       H     0.7457412100     0.1027386900     0.0000000000     25.429578835      3.772792229     -0.000000000
       H    -0.2274452200     1.3042936800     0.0000000000      0.582253582     -5.787363270     -0.000000000
