       3
Lattice="15.0 0.0 0.0 0.0 15.0 0.0 0.0 0.0 15.0" Properties=species:S:1:pos:R:3:forces:R:3 energy=        0.9628071726 pbc="T T T"
       O     0.0009150400    -0.0046493300     0.0000000000      1.504922875      3.756607744     -0.000000000
       H     1.0680796300    -0.0814605600     0.0000000000     -3.979965031      1.147347511     -0.000000000
       H    -0.3612902800     1.0841973100     0.0000000000      2.475042105     -4.903955255     -0.000000000
