       3
Lattice="15.0 0.0 0.0 0.0 15.0 0.0 0.0 0.0 15.0" Properties=species:S:1:pos:R:3:forces:R:3 energy=        1.9271180192 pbc="T T T"
       O    -0.0112746800     0.0146017800     0.0000000000      9.990567421    -15.497201214     -0.000000000
       H     1.1740295100    -0.0741670700     0.0000000000     -6.034459667      1.111958522     -0.000000000
       H    -0.2737806700     0.7713747300     0.0000000000     -3.956107754     14.385242692     -0.000000000
