       3
Lattice="15.0 0.0 0.0 0.0 15.0 0.0 0.0 0.0 15.0" Properties=species:S:1:pos:R:3:forces:R:3 energy=        8.9410628163 pbc="T T T"
       O     0.0351893400    -0.0012759000     0.0000000000    -68.847579920     22.298649084     -0.000000000
       H     0.6333343300    -0.1768965200     0.0000000000     64.888874733    -16.496246088     -0.000000000
       H    -0.4705054300     1.1260933100     0.0000000000      3.958705186     -5.802402996     -0.000000000
