       3
Lattice="15.0 0.0 0.0 0.0 15.0 0.0 0.0 0.0 15.0" Properties=species:S:1:pos:R:3:forces:R:3 energy=        0.9797742092 pbc="T T T"
       O     0.0009899800     0.0187481900     0.0000000000      5.765497570     -7.043801402     -0.000000000
       H     1.1011193600    -0.1817654400     0.0000000000     -5.210378291      2.269553633     -0.000000000
       H    -0.3955223000     0.8131668100     0.0000000000     -0.555119278      4.774247770     -0.000000000
