       3
Lattice="15.0 0.0 0.0 0.0 15.0 0.0 0.0 0.0 15.0" Properties=species:S:1:pos:R:3:forces:R:3 energy=        0.9771650727 pbc="T T T"
       O    -0.0141713400    -0.0066052000     0.0000000000      4.890773563      2.887432643     -0.000000000
       H     1.1768843300     0.0261373700     0.0000000000     -5.654838420     -0.025080815     -0.000000000
       H    -0.2306604500     1.0076402400     0.0000000000      0.764064857     -2.862351828     -0.000000000
