       3
Lattice="15.0 0.0 0.0 0.0 15.0 0.0 0.0 0.0 15.0" Properties=species:S:1:pos:R:3:forces:R:3 energy=        1.1969258369 pbc="T T T"
       O     0.0016168400     0.0195547400     0.0000000000      4.662060510     -4.647516030     -0.000000000
       H     1.1372181600    -0.2200639000     0.0000000000     -5.605201090      2.644665471     -0.000000000
       H    -0.4415708700     0.8386650500     0.0000000000      0.943140580      2.002850559     -0.000000000
