       3
Lattice="15.0 0.0 0.0 0.0 15.0 0.0 0.0 0.0 15.0" Properties=species:S:1:pos:R:3:forces:R:3 energy=        3.0753593043 pbc="T T T"
       O     0.0289312400     0.0081382300     0.0000000000    -28.268521837     10.093156851     -0.000000000
       H     0.7406443100    -0.2127642600     0.0000000000     24.318981815     -5.353520208     -0.000000000
       H    -0.4784959400     1.0125523600     0.0000000000      3.949540022     -4.739636643     -0.000000000
