       3
Lattice="15.0 0.0 0.0 0.0 15.0 0.0 0.0 0.0 15.0" Properties=species:S:1:pos:R:3:forces:R:3 energy=       34.9415043427 pbc="T T T"
       O    -0.0175066800     0.0240550400     0.0000000000     14.221407036   -267.831989641     -0.000000000
       H     1.0279005400     0.0863215600     0.0000000000     -2.913734886     -1.998411753     -0.000000000
       H    -0.0287413500     0.4608541800     0.0000000000    -11.307672150    269.830401394     -0.000000000
