       3
Lattice="15.0 0.0 0.0 0.0 15.0 0.0 0.0 0.0 15.0" Properties=species:S:1:pos:R:3:forces:R:3 energy=        0.7555317624 pbc="T T T"
       O     0.0084651700    -0.0065716300     0.0000000000    -10.504985037      3.978986932     -0.000000000
       H     0.8511479700     0.0000013200     0.0000000000      9.407789128      0.105668173     -0.000000000
       H    -0.2641825400     1.0332424000     0.0000000000      1.097195858     -4.084655054     -0.000000000
