       3
Lattice="15.0 0.0 0.0 0.0 15.0 0.0 0.0 0.0 15.0" Properties=species:S:1:pos:R:3:forces:R:3 energy=       14.8992297717 pbc="T T T"
       O    -0.0184844500     0.0111464500     0.0000000000     -9.695852525   -110.464107311     -0.000000000
       H     0.9572324800     0.1939216900     0.0000000000      1.287433310     -3.948994691     -0.000000000
       H     0.0574475200     0.5581220700     0.0000000000      8.408419215    114.413102002     -0.000000000
