       3
Lattice="15.0 0.0 0.0 0.0 15.0 0.0 0.0 0.0 15.0" Properties=species:S:1:pos:R:3:forces:R:3 energy=        2.5641874045 pbc="T T T"
       O    -0.0415223700    -0.0127074900     0.0000000000      6.057838925     -2.416285274     -0.000000000
       H     1.3585991800     0.2413336700     0.0000000000     -4.821854184     -1.864475933     -0.000000000
       H     0.0217110100     0.8892910900     0.0000000000     -1.235984792      4.280761206     -0.000000000
