       3
Lattice="15.0 0.0 0.0 0.0 15.0 0.0 0.0 0.0 15.0" Properties=species:S:1:pos:R:3:forces:R:3 energy=        2.0336008231 pbc="T T T"
       O     0.0099826400    -0.0220936100     0.0000000000    -10.825852229      5.248073253     -0.000000000
       H     0.8532554300     0.0285729400     0.0000000000      9.357609398      0.670730426     -0.000000000
       H    -0.2903724900     1.2510159600     0.0000000000      1.468242832     -5.918803679     -0.000000000
