       3
Lattice="15.0 0.0 0.0 0.0 15.0 0.0 0.0 0.0 15.0" Properties=species:S:1:pos:R:3:forces:R:3 energy=        0.9536131800 pbc="T T T"
       O     0.0034730100     0.0102952100     0.0000000000      2.130068443      0.270504297     -0.000000000
       H     1.1022752100    -0.1866286400     0.0000000000     -4.925211809      2.264557565     -0.000000000
       H    -0.4360856600     0.9521852100     0.0000000000      2.795143314     -2.535061863     -0.000000000
