       3
Lattice="15.0 0.0 0.0 0.0 15.0 0.0 0.0 0.0 15.0" Properties=species:S:1:pos:R:3:forces:R:3 energy=        0.5236456208 pbc="T T T"
       O     0.0028095100    -0.0080301400     0.0000000000     -8.055489116      2.169723769     -0.000000000
       H     0.8513174100     0.0741657500     0.0000000000      8.613264500     -0.223484455     -0.000000000
       H    -0.1745907000     0.9822251300     0.0000000000     -0.557775383     -1.946239314     -0.000000000
