       3
Lattice="15.0 0.0 0.0 0.0 15.0 0.0 0.0 0.0 15.0" Properties=species:S:1:pos:R:3:forces:R:3 energy=        1.1376735718 pbc="T T T"
       O    -0.0129664600    -0.0283504900     0.0000000000      2.509736022      6.813571193     -0.000000000
       H     0.9626032500     0.2462017100     0.0000000000     -0.917710250     -2.258159578     -0.000000000
       H    -0.0354957400     1.1326876000     0.0000000000     -1.592025772     -4.555411615     -0.000000000
