       3
Lattice="15.0 0.0 0.0 0.0 15.0 0.0 0.0 0.0 15.0" Properties=species:S:1:pos:R:3:forces:R:3 energy=        2.4099668662 pbc="T T T"
       O    -0.0125650400    -0.0045301200     0.0000000000     -0.714925859    -16.436781072     -0.000000000
       H     0.8869729100     0.2249257800     0.0000000000      4.519677841     -3.157276835     -0.000000000
       H     0.0337628600     0.7759164200     0.0000000000     -3.804751982     19.594057906     -0.000000000
