       3
Lattice="15.0 0.0 0.0 0.0 15.0 0.0 0.0 0.0 15.0" Properties=species:S:1:pos:R:3:forces:R:3 energy=        0.6787726629 pbc="T T T"
       O    -0.0013042400    -0.0133314300     0.0000000000      0.437858047      5.197929313     -0.000000000
       H     0.9968336400     0.0285711700     0.0000000000     -1.651391749     -0.017080618     -0.000000000
       H    -0.2548197300     1.1119560000     0.0000000000      1.213533703     -5.180848695     -0.000000000
