       3
Lattice="15.0 0.0 0.0 0.0 15.0 0.0 0.0 0.0 15.0" Properties=species:S:1:pos:R:3:forces:R:3 energy=        3.0612860707 pbc="T T T"
       O     0.0121775000    -0.0250907100     0.0000000000    -20.542161489      3.981298303     -0.000000000
       H     0.7812620800     0.0668718300     0.0000000000     19.562487984      1.934960959     -0.000000000
       H    -0.2532121100     1.2602827200     0.0000000000      0.979673505     -5.916259262     -0.000000000
