       3
Lattice="15.0 0.0 0.0 0.0 15.0 0.0 0.0 0.0 15.0" Properties=species:S:1:pos:R:3:forces:R:3 energy=        0.9174320069 pbc="T T T"
       O    -0.0107349700    -0.0138287900     0.0000000000      3.956362293      5.096390333     -0.000000000
       H     1.1054689000     0.0620046700     0.0000000000     -4.708089398     -0.428085742     -0.000000000
       H    -0.2137817500     1.0864161900     0.0000000000      0.751727104     -4.668304591     -0.000000000
