       3
Lattice="15.0 0.0 0.0 0.0 15.0 0.0 0.0 0.0 15.0" Properties=species:S:1:pos:R:3:forces:R:3 energy=        2.6560418516 pbc="T T T"
       O    -0.0412464100    -0.0240029700     0.0000000000      6.124110220      4.999687395     -0.000000000
       H     1.3601287100     0.2723368800     0.0000000000     -4.808545582     -1.886658804     -0.000000000
       H     0.0158027400     1.0375554500     0.0000000000     -1.315564586     -3.113028591     -0.000000000
