       3
Lattice="15.0 0.0 0.0 0.0 15.0 0.0 0.0 0.0 15.0" Properties=species:S:1:pos:R:3:forces:R:3 energy=       12.0741909080 pbc="T T T"
       O     0.0266997500    -0.0063834700     0.0000000000   -100.511391483      8.568440997     -0.000000000
       H     0.5977786500    -0.0285672100     0.0000000000     98.752457328     -3.472400231     -0.000000000
       H    -0.3002099300     1.0588237700     0.0000000000      1.758934155     -5.096040766     -0.000000000
