       3
Lattice="15.0 0.0 0.0 0.0 15.0 0.0 0.0 0.0 15.0" Properties=species:S:1:pos:R:3:forces:R:3 energy=        1.6390897080 pbc="T T T"
       O    -0.0000871500    -0.0292371200     0.0000000000     -5.979607212      5.485120951     -0.000000000
       H     0.8541722300     0.1744702000     0.0000000000      6.443360188      0.013461994     -0.000000000
       H    -0.1314704800     1.2184906400     0.0000000000     -0.463752976     -5.498582945     -0.000000000
