       3
Lattice="15.0 0.0 0.0 0.0 15.0 0.0 0.0 0.0 15.0" Properties=species:S:1:pos:R:3:forces:R:3 energy=        2.8137762398 pbc="T T T"
       O    -0.0163034700     0.0139498200     0.0000000000     11.652631722    -21.677540818     -0.000000000
       H     1.2102977400    -0.0383011000     0.0000000000     -6.215023442      0.682027396     -0.000000000
       H    -0.2302373900     0.7458557100     0.0000000000     -5.437608280     20.995513422     -0.000000000
