       3
Lattice="15.0 0.0 0.0 0.0 15.0 0.0 0.0 0.0 15.0" Properties=species:S:1:pos:R:3:forces:R:3 energy=        6.1491239125 pbc="T T T"
       O    -0.0049416400     0.0285851700     0.0000000000     27.465377685    -49.349547363     -0.000000000
       H     1.0997592700    -0.1386042200     0.0000000000     -5.591121877      1.924489828     -0.000000000
       H    -0.3000221800     0.6138851800     0.0000000000    -21.874255808     47.425057483     -0.000000000
