       3
Lattice="15.0 0.0 0.0 0.0 15.0 0.0 0.0 0.0 15.0" Properties=species:S:1:pos:R:3:forces:R:3 energy=        1.1525150590 pbc="T T T"
       O    -0.0003142700     0.0054167600     0.0000000000      2.561704006      1.480559193     -0.000000000
       H     1.1391213700    -0.1531942700     0.0000000000     -5.356184027      1.937864456     -0.000000000
       H    -0.4128240600     0.9961753800     0.0000000000      2.794480020     -3.418423649     -0.000000000
