       3
Lattice="15.0 0.0 0.0 0.0 15.0 0.0 0.0 0.0 15.0" Properties=species:S:1:pos:R:3:forces:R:3 energy=        1.2967656857 pbc="T T T"
       O     0.0078871500     0.0159802100     0.0000000000      1.527401835     -0.336810559     -0.000000000
       H     1.1015278500    -0.2583614800     0.0000000000     -4.948443691      2.906160618     -0.000000000
       H    -0.5053958300     0.9336932700     0.0000000000      3.421041856     -2.569350059     -0.000000000
