       3
Lattice="15.0 0.0 0.0 0.0 15.0 0.0 0.0 0.0 15.0" Properties=species:S:1:pos:R:3:forces:R:3 energy=        0.9375103580 pbc="T T T"
       O     0.0081386900    -0.0069944800     0.0000000000     -2.888441133      4.488047549     -0.000000000
       H     0.9598180500    -0.0790276300     0.0000000000      0.314795530      0.895320404     -0.000000000
       H    -0.3676731700     1.1189830800     0.0000000000      2.573645603     -5.383367953     -0.000000000
