       3
Lattice="15.0 0.0 0.0 0.0 15.0 0.0 0.0 0.0 15.0" Properties=species:S:1:pos:R:3:forces:R:3 energy=        1.4003142096 pbc="T T T"
       O    -0.0071992300     0.0140243400     0.0000000000      5.690870185     -4.625658249     -0.000000000
       H     1.2103325500    -0.1507635500     0.0000000000     -6.108578281      1.929869041     -0.000000000
       H    -0.3747660000     0.8571362000     0.0000000000      0.417708096      2.695789207     -0.000000000
