       3
Lattice="15.0 0.0 0.0 0.0 15.0 0.0 0.0 0.0 15.0" Properties=species:S:1:pos:R:3:forces:R:3 energy=        0.7117471783 pbc="T T T"
       O    -0.0009411300     0.0046102000     0.0000000000      2.775592533      1.056483706     -0.000000000
       H     1.1030225800    -0.1148958100     0.0000000000     -4.899694061      1.531549952     -0.000000000
       H    -0.3667754900     0.9706771500     0.0000000000      2.124101527     -2.588033606     -0.000000000
