       3
Lattice="15.0 0.0 0.0 0.0 15.0 0.0 0.0 0.0 15.0" Properties=species:S:1:pos:R:3:forces:R:3 energy=        3.6399585808 pbc="T T T"
       O    -0.0103091200     0.0216707700     0.0000000000     16.205375199    -29.430735423     -0.000000000
       H     1.1730779000    -0.1076018900     0.0000000000     -6.188160029      1.543973014     -0.000000000
       H    -0.2881540700     0.6926195600     0.0000000000    -10.017215169     27.886762409     -0.000000000
