       3
Lattice="15.0 0.0 0.0 0.0 15.0 0.0 0.0 0.0 15.0" Properties=species:S:1:pos:R:3:forces:R:3 energy=        1.5503320636 pbc="T T T"
       O    -0.0216831600     0.0011958200     0.0000000000      7.491386554     -7.972463271     -0.000000000
       H     1.2119967100     0.0668665500     0.0000000000     -5.815554503     -0.586860539     -0.000000000
       H    -0.1465538200     0.8431028100     0.0000000000     -1.675832051      8.559323810     -0.000000000
