       3
Lattice="15.0 0.0 0.0 0.0 15.0 0.0 0.0 0.0 15.0" Properties=species:S:1:pos:R:3:forces:R:3 energy=        6.9091099229 pbc="T T T"
       O     0.0311888300     0.0226990600     0.0000000000    -53.931271197     13.207857174     -0.000000000
       H     0.6300710200    -0.2006049300     0.0000000000     55.516331847    -18.692816454     -0.000000000
       H    -0.4037521300     0.7693013400     0.0000000000     -1.585060650      5.484959280     -0.000000000
