       3
Lattice="15.0 0.0 0.0 0.0 15.0 0.0 0.0 0.0 15.0" Properties=species:S:1:pos:R:3:forces:R:3 energy=        7.1055494681 pbc="T T T"
       O    -0.0216570700     0.0012349600     0.0000000000     -4.570112058    -48.543287854     -0.000000000
       H     0.9585577700     0.2632229200     0.0000000000      1.677428398     -4.594720150     -0.000000000
       H     0.1064760100     0.6461232000     0.0000000000      2.892683712     53.138008056     -0.000000000
