       3
Lattice="15.0 0.0 0.0 0.0 15.0 0.0 0.0 0.0 15.0" Properties=species:S:1:pos:R:3:forces:R:3 energy=        4.8152616436 pbc="T T T"
       O    -0.0380232700    -0.0023731500     0.0000000000      2.875719822    -27.636530498     -0.000000000
       H     1.2486038200     0.2510613900     0.0000000000     -4.278640919     -2.757655378     -0.000000000
       H     0.0761731500     0.7155492600     0.0000000000      1.402921148     30.394185876     -0.000000000
