       3
Lattice="15.0 0.0 0.0 0.0 15.0 0.0 0.0 0.0 15.0" Properties=species:S:1:pos:R:3:forces:R:3 energy=        4.9057326121 pbc="T T T"
       O    -0.0219591300     0.0124913100     0.0000000000     13.093640490    -38.430807663     -0.000000000
       H     1.2104671800     0.0358633300     0.0000000000     -6.010485970     -0.305253853     -0.000000000
       H    -0.1406455500     0.6948384400     0.0000000000     -7.083154520     38.736061516     -0.000000000
