       3
Lattice="15.0 0.0 0.0 0.0 15.0 0.0 0.0 0.0 15.0" Properties=species:S:1:pos:R:3:forces:R:3 energy=        1.9009753958 pbc="T T T"
       O    -0.0239529600    -0.0192046000     0.0000000000      5.493795446      5.708570490     -0.000000000
       H     1.2509503300     0.1288725400     0.0000000000     -5.683565626     -0.960334224     -0.000000000
       H    -0.1494821700     1.1048665600     0.0000000000      0.189770231     -4.748236267     -0.000000000
