       3
Lattice="15.0 0.0 0.0 0.0 15.0 0.0 0.0 0.0 15.0" Properties=species:S:1:pos:R:3:forces:R:3 energy=        3.3560553034 pbc="T T T"
       O     0.0071992300    -0.0140243400     0.0000000000    -29.878027468     -2.362217931     -0.000000000
       H     0.7073307100     0.1507635500     0.0000000000     31.945449462      4.234895275     -0.000000000
       H    -0.1002699400     1.0007586400     0.0000000000     -2.067421994     -1.872677344     -0.000000000
