       3
Lattice="15.0 0.0 0.0 0.0 15.0 0.0 0.0 0.0 15.0" Properties=species:S:1:pos:R:3:forces:R:3 energy=        1.5847258378 pbc="T T T"
       O     0.0201151700     0.0026078300     0.0000000000    -16.949560071      5.680612867     -0.000000000
       H     0.8137587000    -0.1434639000     0.0000000000     13.802652398     -1.005975286     -0.000000000
       H    -0.4116910700     1.0310235100     0.0000000000      3.146907674     -4.674637530     -0.000000000
