       3
Lattice="15.0 0.0 0.0 0.0 15.0 0.0 0.0 0.0 15.0" Properties=species:S:1:pos:R:3:forces:R:3 energy=        9.5411794932 pbc="T T T"
       O     0.0263610600    -0.0126459100     0.0000000000    -77.076747445      7.891872313     -0.000000000
       H     0.6348290500    -0.0334308500     0.0000000000     74.884580403     -1.868518274     -0.000000000
       H    -0.3318851000     1.1630771800     0.0000000000      2.192167042     -6.023354039     -0.000000000
