       3
Lattice="15.0 0.0 0.0 0.0 15.0 0.0 0.0 0.0 15.0" Properties=species:S:1:pos:R:3:forces:R:3 energy=        3.9096183057 pbc="T T T"
       O     0.0000627300     0.0175579300     0.0000000000      9.912856048    -38.264829557     -0.000000000
       H     0.9202516900    -0.0261395700     0.0000000000      1.902048663     -0.191718409     -0.000000000
       H    -0.1999345300     0.6764296500     0.0000000000    -11.814904712     38.456547915     -0.000000000
