       3
Lattice="15.0 0.0 0.0 0.0 15.0 0.0 0.0 0.0 15.0" Properties=species:S:1:pos:R:3:forces:R:3 energy=        1.9239173153 pbc="T T T"
       O    -0.0062336700     0.0210933300     0.0000000000      8.458673044    -10.729696217     -0.000000000
       H     1.2093809500    -0.1841983600     0.0000000000     -6.206406797      2.300234981     -0.000000000
       H    -0.3891394100     0.7783810300     0.0000000000     -2.252266247      8.429461236     -0.000000000
