       3
Lattice="15.0 0.0 0.0 0.0 15.0 0.0 0.0 0.0 15.0" Properties=species:S:1:pos:R:3:forces:R:3 energy=        5.4275633532 pbc="T T T"
       O     0.0134695400    -0.0175988700     0.0000000000    -45.849108313     -2.252209579     -0.000000000
       H     0.6716404000     0.1124659700     0.0000000000     46.412720977      6.950833868     -0.000000000
       H    -0.1640948900     1.0957868600     0.0000000000     -0.563612664     -4.698624237     -0.000000000
