       3
Lattice="15.0 0.0 0.0 0.0 15.0 0.0 0.0 0.0 15.0" Properties=species:S:1:pos:R:3:forces:R:3 energy=        5.1908088607 pbc="T T T"
       O     0.0100958900     0.0071826400     0.0000000000    -32.432485125    -19.166606816     -0.000000000
       H     0.7044758900     0.0504591000     0.0000000000     38.320892540      0.166118899     -0.000000000
       H    -0.1433901600     0.7644931400     0.0000000000     -5.888407414     19.000487916     -0.000000000
