       3
Lattice="15.0 0.0 0.0 0.0 15.0 0.0 0.0 0.0 15.0" Properties=species:S:1:pos:R:3:forces:R:3 energy=       14.7933277187 pbc="T T T"
       O    -0.0002010200     0.0346930100     0.0000000000     60.234151692   -107.839807404     -0.000000000
       H     0.9903418300    -0.1313081000     0.0000000000     -3.064847638      1.593957443     -0.000000000
       H    -0.2658417200     0.5096525600     0.0000000000    -57.169304055    106.245849961     -0.000000000
