       3
Lattice="15.0 0.0 0.0 0.0 15.0 0.0 0.0 0.0 15.0" Properties=species:S:1:pos:R:3:forces:R:3 energy=        5.1330865612 pbc="T T T"
       O    -0.0159892000     0.0085330600     0.0000000000      8.045638239    -44.587142254     -0.000000000
       H     1.0300080000     0.1148931700     0.0000000000     -2.721875067     -1.954586199     -0.000000000
       H    -0.0549313000     0.6786277400     0.0000000000     -5.323763223     46.541728453     -0.000000000
