       3
Lattice="15.0 0.0 0.0 0.0 15.0 0.0 0.0 0.0 15.0" Properties=species:S:1:pos:R:3:forces:R:3 energy=        5.4206398895 pbc="T T T"
       O    -0.0049782800     0.0110663700     0.0000000000      3.647830900    -47.330622362     -0.000000000
       H     0.8849002600     0.0838917200     0.0000000000      5.061911361     -1.648400064     -0.000000000
       H    -0.0845757900     0.6694233400     0.0000000000     -8.709742260     48.979022426     -0.000000000
