       3
Lattice="15.0 0.0 0.0 0.0 15.0 0.0 0.0 0.0 15.0" Properties=species:S:1:pos:R:3:forces:R:3 energy=        2.0143574479 pbc="T T T"
       O     0.0017812300    -0.0326570600     0.0000000000     -4.395632905      5.643952158     -0.000000000
       H     0.8908489500     0.1337401400     0.0000000000      4.015797073      0.048780021     -0.000000000
       H    -0.1978007300     1.3134980800     0.0000000000      0.379835883     -5.692732179     -0.000000000
