       3
Lattice="15.0 0.0 0.0 0.0 15.0 0.0 0.0 0.0 15.0" Properties=species:S:1:pos:R:3:forces:R:3 energy=        0.9279741931 pbc="T T T"
       O     0.0097311100     0.0008810700     0.0000000000     -1.548038239      3.219039750     -0.000000000
       H     0.9949652400    -0.1507609100     0.0000000000     -1.683578839      1.607164897     -0.000000000
       H    -0.4280951500     1.0657261500     0.0000000000      3.231617078     -4.826204596     -0.000000000
