       3
Lattice="15.0 0.0 0.0 0.0 15.0 0.0 0.0 0.0 15.0" Properties=species:S:1:pos:R:3:forces:R:3 energy=        9.3879858010 pbc="T T T"
       O     0.0081403600    -0.0186345400     0.0000000000    -58.847664786    -25.461865889     -0.000000000
       H     0.5631397600     0.2656593600     0.0000000000     64.540285688     22.937532474     -0.000000000
       H     0.0289875800     0.9590289200     0.0000000000     -5.692620902      2.524333415     -0.000000000
