       3
Lattice="15.0 0.0 0.0 0.0 15.0 0.0 0.0 0.0 15.0" Properties=species:S:1:pos:R:3:forces:R:3 energy=        5.2817848563 pbc="T T T"
       O     0.0123029600     0.0100251400     0.0000000000    -33.057487380    -18.110385723     -0.000000000
       H     0.7041022100     0.0145926900     0.0000000000     39.240095572     -1.111951734     -0.000000000
       H    -0.1780452400     0.7552471700     0.0000000000     -6.182608192     19.222337457     -0.000000000
