       3
Lattice="15.0 0.0 0.0 0.0 15.0 0.0 0.0 0.0 15.0" Properties=species:S:1:pos:R:3:forces:R:3 energy=        7.1463599511 pbc="T T T"
       O    -0.0225737800     0.0175243600     0.0000000000     18.292160951    -54.022921401     -0.000000000
       H     1.2459880500    -0.0000035200     0.0000000000     -6.306277490      0.205623610     -0.000000000
       H    -0.1664124400     0.6508274800     0.0000000000    -11.985883461     53.817297791     -0.000000000
