       3
Lattice="15.0 0.0 0.0 0.0 15.0 0.0 0.0 0.0 15.0" Properties=species:S:1:pos:R:3:forces:R:3 energy=        4.5062723636 pbc="T T T"
       O    -0.0336213400    -0.0025277500     0.0000000000      3.030266181    -27.407468855     -0.000000000
       H     1.1762367900     0.2534938700     0.0000000000     -3.832898530     -3.173215728     -0.000000000
       H     0.0786784500     0.7155700500     0.0000000000      0.802632297     30.580684583     -0.000000000
