       3
Lattice="15.0 0.0 0.0 0.0 15.0 0.0 0.0 0.0 15.0" Properties=species:S:1:pos:R:3:forces:R:3 energy=       10.9420614465 pbc="T T T"
       O    -0.0039760900     0.0356541600     0.0000000000     49.767298705    -77.615105540     -0.000000000
       H     1.0988076600    -0.1720390400     0.0000000000     -5.831982729      2.377489674     -0.000000000
       H    -0.3143955900     0.5351300100     0.0000000000    -43.935315976     75.237615866     -0.000000000
