       3
Lattice="15.0 0.0 0.0 0.0 15.0 0.0 0.0 0.0 15.0" Properties=species:S:1:pos:R:3:forces:R:3 energy=        1.4818589210 pbc="T T T"
       O    -0.0109865000     0.0091458900     0.0000000000      5.118654914     -2.216193858     -0.000000000
       H     1.2471787100    -0.1173291700     0.0000000000     -6.160557938      1.540747975     -0.000000000
       H    -0.3515044000     0.9011263800     0.0000000000      1.041903024      0.675445883     -0.000000000
