       3
Lattice="15.0 0.0 0.0 0.0 15.0 0.0 0.0 0.0 15.0" Properties=species:S:1:pos:R:3:forces:R:3 energy=        2.0587600243 pbc="T T T"
       O     0.0128165800    -0.0184445600     0.0000000000     -8.327978049      5.179332720     -0.000000000
       H     0.8889805500    -0.0455919400     0.0000000000      6.053776991      0.612128838     -0.000000000
       H    -0.3710761500     1.2672682300     0.0000000000      2.274201058     -5.791461507     -0.000000000
