       3
Lattice="15.0 0.0 0.0 0.0 15.0 0.0 0.0 0.0 15.0" Properties=species:S:1:pos:R:3:forces:R:3 energy=        1.6291857078 pbc="T T T"
       O     0.0125911300     0.0045692600     0.0000000000    -20.248918396     -1.050278397     -0.000000000
       H     0.7772514100    -0.0285694100     0.0000000000     20.837352708     -0.897121000     -0.000000000
       H    -0.2557689800     0.8849988100     0.0000000000     -0.588434312      1.947399397     -0.000000000
