       3
Lattice="15.0 0.0 0.0 0.0 15.0 0.0 0.0 0.0 15.0" Properties=species:S:1:pos:R:3:forces:R:3 energy=       15.6972795478 pbc="T T T"
       O     0.0431025800     0.0147434400     0.0000000000   -113.162124740     58.874409928     -0.000000000
       H     0.5225916100    -0.2389016300     0.0000000000    109.241527640    -54.782378633     -0.000000000
       H    -0.4853534600     0.9338595500     0.0000000000      3.920597100     -4.092031295     -0.000000000
