       3
Lattice="15.0 0.0 0.0 0.0 15.0 0.0 0.0 0.0 15.0" Properties=species:S:1:pos:R:3:forces:R:3 energy=        3.4004821986 pbc="T T T"
       O    -0.0244804600     0.0150655700     0.0000000000      9.834913688    -16.136433709     -0.000000000
       H     1.3911306000    -0.0814645200     0.0000000000     -5.990830031      1.085437529     -0.000000000
       H    -0.2812965500     0.7713123800     0.0000000000     -3.844083656     15.050996180     -0.000000000
