       3
Lattice="15.0 0.0 0.0 0.0 15.0 0.0 0.0 0.0 15.0" Properties=species:S:1:pos:R:3:forces:R:3 energy=        1.6469732357 pbc="T T T"
       O     0.0192123400     0.0130967600     0.0000000000    -19.685668155      0.944458682     -0.000000000
       H     0.7761303700    -0.1361686600     0.0000000000     19.198752203     -2.476150971     -0.000000000
       H    -0.3597342300     0.8572609100     0.0000000000      0.486915952      1.531692237     -0.000000000
