       3
Lattice="15.0 0.0 0.0 0.0 15.0 0.0 0.0 0.0 15.0" Properties=species:S:1:pos:R:3:forces:R:3 energy=       15.4348069404 pbc="T T T"
       O    -0.0024080900     0.0318505100     0.0000000000     55.230577919   -116.066277172     -0.000000000
       H     0.9907155100    -0.0954416900     0.0000000000     -2.847357507      1.148027877     -0.000000000
       H    -0.2311866400     0.5188985200     0.0000000000    -52.383220411    114.918249295     -0.000000000
