       3
Lattice="15.0 0.0 0.0 0.0 15.0 0.0 0.0 0.0 15.0" Properties=species:S:1:pos:R:3:forces:R:3 energy=       27.6818416307 pbc="T T T"
       O     0.0270262200    -0.0059606200     0.0000000000   -215.341195816    -21.367208726     -0.000000000
       H     0.4891085700     0.0504617400     0.0000000000    216.120940657     23.637806432     -0.000000000
       H    -0.1967193000     0.9730830900     0.0000000000     -0.779744840     -2.270597707     -0.000000000
