       3
Lattice="15.0 0.0 0.0 0.0 15.0 0.0 0.0 0.0 15.0" Properties=species:S:1:pos:R:3:forces:R:3 energy=       11.9721318347 pbc="T T T"
       O    -0.0317024400     0.0057706400     0.0000000000    -13.432667599    -80.823683877     -0.000000000
       H     1.1027139000     0.2607895600     0.0000000000     -2.080122118     -4.157224783     -0.000000000
       H     0.1217471000     0.5765724300     0.0000000000     15.512789717     84.980908660     -0.000000000
