       3
Lattice="15.0 0.0 0.0 0.0 15.0 0.0 0.0 0.0 15.0" Properties=species:S:1:pos:R:3:forces:R:3 energy=        1.9792916967 pbc="T T T"
       O     0.0016290500     0.0253943400     0.0000000000      4.434771130     -4.652986209     -0.000000000
       H     1.2088378300    -0.2942292100     0.0000000000     -5.936736258      3.186332628     -0.000000000
       H    -0.5133863400     0.8201523300     0.0000000000      1.501965179      1.466653581     -0.000000000
