       3
Lattice="15.0 0.0 0.0 0.0 15.0 0.0 0.0 0.0 15.0" Properties=species:S:1:pos:R:3:forces:R:3 energy=        2.9549348992 pbc="T T T"
       O     0.0250934500    -0.0084585500     0.0000000000     -8.712466911      4.218017569     -0.000000000
       H     0.8876900700    -0.2273556200     0.0000000000      5.118772568      0.730050329     -0.000000000
       H    -0.5646332500     1.2905475900     0.0000000000      3.593694343     -4.948067898     -0.000000000
