       3
Lattice="15.0 0.0 0.0 0.0 15.0 0.0 0.0 0.0 15.0" Properties=species:S:1:pos:R:3:forces:R:3 energy=        1.6593052671 pbc="T T T"
       O    -0.0030976800     0.0134860300     0.0000000000      7.919440054    -20.468574991     -0.000000000
       H     0.9931966500    -0.0310036600     0.0000000000     -2.055098228      0.239807059     -0.000000000
       H    -0.2227215100     0.7459180600     0.0000000000     -5.864341826     20.228767983     -0.000000000
