       3
Lattice="15.0 0.0 0.0 0.0 15.0 0.0 0.0 0.0 15.0" Properties=species:S:1:pos:R:3:forces:R:3 energy=        0.3677320472 pbc="T T T"
       O    -0.0015679900     0.0038036500     0.0000000000      2.860792402      0.340280882     -0.000000000
       H     1.0669237800    -0.0765973500     0.0000000000     -4.187090577      1.064091192     -0.000000000
       H    -0.3207269200     0.9451789100     0.0000000000      1.326298175     -1.404372074     -0.000000000
