       3
Lattice="15.0 0.0 0.0 0.0 15.0 0.0 0.0 0.0 15.0" Properties=species:S:1:pos:R:3:forces:R:3 energy=        2.3401286998 pbc="T T T"
       O     0.0118632400    -0.0196739500     0.0000000000     -3.183768054      4.400825867     -0.000000000
       H     0.9615518200    -0.0863224400     0.0000000000      0.680765549      0.998937042     -0.000000000
       H    -0.4285182100     1.3275106800     0.0000000000      2.503002505     -5.399762909     -0.000000000
