       3
Lattice="15.0 0.0 0.0 0.0 15.0 0.0 0.0 0.0 15.0" Properties=species:S:1:pos:R:3:forces:R:3 energy=        0.0533042480 pbc="T T T"
       O     0.0044141400     0.0056850000     0.0000000000     -0.600681973     -0.772461159     -0.000000000
       H     0.9580842700    -0.0717328300     0.0000000000     -0.079172223      0.681204437     -0.000000000
       H    -0.3068281400     0.9104554800     0.0000000000      0.679854196      0.091256722     -0.000000000
