       3
Lattice="15.0 0.0 0.0 0.0 15.0 0.0 0.0 0.0 15.0" Properties=species:S:1:pos:R:3:forces:R:3 energy=        0.2354867929 pbc="T T T"
       O     0.0031726200     0.0099114900     0.0000000000      1.345483499     -5.776490275     -0.000000000
       H     0.9575063400    -0.0693012300     0.0000000000     -0.214353229      0.603294626     -0.000000000
       H    -0.2865464600     0.8409462800     0.0000000000     -1.131130219      5.173195649     -0.000000000
