       3
Lattice="15.0 0.0 0.0 0.0 15.0 0.0 0.0 0.0 15.0" Properties=species:S:1:pos:R:3:forces:R:3 energy=        1.0907703534 pbc="T T T"
       O     0.0041259700     0.0111408900     0.0000000000     -0.964704792    -13.369343560     -0.000000000
       H     0.8849350700    -0.0285707300     0.0000000000      5.103638019     -0.242097759     -0.000000000
       H    -0.2291044000     0.7807038400     0.0000000000     -4.138933278     13.611441319     -0.000000000
