       3
Lattice="15.0 0.0 0.0 0.0 15.0 0.0 0.0 0.0 15.0" Properties=species:S:1:pos:R:3:forces:R:3 energy=        9.4682104065 pbc="T T T"
       O     0.0004380500     0.0413391600     0.0000000000     49.944157416    -61.533725655     -0.000000000
       H     1.0980603000    -0.2437718700     0.0000000000     -6.006821838      3.014675107     -0.000000000
       H    -0.3837057600     0.5166380700     0.0000000000    -43.937335527     58.519050496     -0.000000000
