       3
Lattice="15.0 0.0 0.0 0.0 15.0 0.0 0.0 0.0 15.0" Properties=species:S:1:pos:R:3:forces:R:3 energy=        0.5035283983 pbc="T T T"
       O    -0.0144717300    -0.0069889100     0.0000000000      4.769793229     -2.017669993     -0.000000000
       H     1.0321154600     0.1434647800     0.0000000000     -2.863796737     -1.812957326     -0.000000000
       H    -0.0811212500     0.8964013100     0.0000000000     -1.905996491      3.830627267     -0.000000000
