       3
Lattice="15.0 0.0 0.0 0.0 15.0 0.0 0.0 0.0 15.0" Properties=species:S:1:pos:R:3:forces:R:3 energy=        1.9654485844 pbc="T T T"
       O    -0.0067083600    -0.0377646300     0.0000000000     -2.309011600      6.018474134     -0.000000000
       H     0.8552932700     0.2820694500     0.0000000000      3.942878599     -1.089685251     -0.000000000
       H    -0.0275052300     1.2462285400     0.0000000000     -1.633866999     -4.928788883     -0.000000000
