       3
Lattice="15.0 0.0 0.0 0.0 15.0 0.0 0.0 0.0 15.0" Properties=species:S:1:pos:R:3:forces:R:3 energy=        0.6371032281 pbc="T T T"
       O    -0.0084895900    -0.0051075600     0.0000000000      0.890498092     -5.260168962     -0.000000000
       H     0.9232759500     0.1483293100     0.0000000000      1.938462032     -1.863430573     -0.000000000
       H    -0.0672224700     0.8616778900     0.0000000000     -2.828960073      7.123599535     -0.000000000
