       3
Lattice="15.0 0.0 0.0 0.0 15.0 0.0 0.0 0.0 15.0" Properties=species:S:1:pos:R:3:forces:R:3 energy=        1.1194432276 pbc="T T T"
       O    -0.0172812400     0.0010412300     0.0000000000      7.118485608     -7.713833002     -0.000000000
       H     1.1396296800     0.0692990300     0.0000000000     -5.242049104     -0.747900221     -0.000000000
       H    -0.1440485200     0.8431236000     0.0000000000     -1.876436504      8.461733224     -0.000000000
