       3
Lattice="15.0 0.0 0.0 0.0 15.0 0.0 0.0 0.0 15.0" Properties=species:S:1:pos:R:3:forces:R:3 energy=        0.5015026820 pbc="T T T"
       O    -0.0122768700    -0.0099860100     0.0000000000      2.638525159     -1.134854001     -0.000000000
       H     0.9601221100     0.1817636800     0.0000000000     -0.160138922     -2.254887642     -0.000000000
       H    -0.0439608700     0.9056680600     0.0000000000     -2.478386237      3.389741643     -0.000000000
