       3
Lattice="15.0 0.0 0.0 0.0 15.0 0.0 0.0 0.0 15.0" Properties=species:S:1:pos:R:3:forces:R:3 energy=        4.1471454927 pbc="T T T"
       O     0.0113374100     0.0029561500     0.0000000000    -35.189959395     -8.906678314     -0.000000000
       H     0.7050538100     0.0480275000     0.0000000000     38.476532543      0.646517308     -0.000000000
       H    -0.1636718300     0.8340023400     0.0000000000     -3.286573148      8.260161006     -0.000000000
