       3
Lattice="15.0 0.0 0.0 0.0 15.0 0.0 0.0 0.0 15.0" Properties=species:S:1:pos:R:3:forces:R:3 energy=        1.2897973042 pbc="T T T"
       O     0.0163278900    -0.0022706200     0.0000000000    -12.359283972      5.128556854     -0.000000000
       H     0.8506048600    -0.1100295300     0.0000000000      9.473429371      0.009861162     -0.000000000
       H    -0.3884294700     1.0750136900     0.0000000000      2.885854602     -5.138418017     -0.000000000
