       3
Lattice="15.0 0.0 0.0 0.0 15.0 0.0 0.0 0.0 15.0" Properties=species:S:1:pos:R:3:forces:R:3 energy=        1.6980868773 pbc="T T T"
       O    -0.0100958900    -0.0071826400     0.0000000000      3.744659513      3.983304125     -0.000000000
       H     1.2131873700    -0.0504591000     0.0000000000     -5.862252032      0.843751815     -0.000000000
       H    -0.3316457800     1.0934017100     0.0000000000      2.117592571     -4.827055888     -0.000000000
