       3
Lattice="15.0 0.0 0.0 0.0 15.0 0.0 0.0 0.0 15.0" Properties=species:S:1:pos:R:3:forces:R:3 energy=        3.0397655896 pbc="T T T"
       O    -0.0156643900     0.0205959700     0.0000000000     10.677838738    -15.741251058     -0.000000000
       H     1.3180162100    -0.1507648700     0.0000000000     -6.252679425      1.839088282     -0.000000000
       H    -0.3481014300     0.7528412200     0.0000000000     -4.425159313     13.902162776     -0.000000000
