       3
Lattice="15.0 0.0 0.0 0.0 15.0 0.0 0.0 0.0 15.0" Properties=species:S:1:pos:R:3:forces:R:3 energy=        1.0608507678 pbc="T T T"
       O     0.0100453700    -0.0045356900     0.0000000000    -15.122563641      3.169494465     -0.000000000
       H     0.8146754900     0.0024333600     0.0000000000     14.392211310     -0.000172418     -0.000000000
       H    -0.2527890600     0.9984981900     0.0000000000      0.730352382     -3.169321996     -0.000000000
