       3
Lattice="15.0 0.0 0.0 0.0 15.0 0.0 0.0 0.0 15.0" Properties=species:S:1:pos:R:3:forces:R:3 energy=        8.6531829568 pbc="T T T"
       O     0.0134573200    -0.0234384700     0.0000000000    -63.257494044    -14.587998492     -0.000000000
       H     0.6000207300     0.1866312900     0.0000000000     65.264678816     18.733164075     -0.000000000
       H    -0.0922794300     1.1142995800     0.0000000000     -2.007184772     -4.145165584     -0.000000000
