       3
Lattice="15.0 0.0 0.0 0.0 15.0 0.0 0.0 0.0 15.0" Properties=species:S:1:pos:R:3:forces:R:3 energy=        1.3582823572 pbc="T T T"
       O    -0.0261095200    -0.0103287800     0.0000000000      6.419651366     -2.932876604     -0.000000000
       H     1.1411244000     0.2127647000     0.0000000000     -4.415361708     -2.468605808     -0.000000000
       H    -0.0054281900     0.8801074700     0.0000000000     -2.004289657      5.401482412     -0.000000000
