       3
Lattice="15.0 0.0 0.0 0.0 15.0 0.0 0.0 0.0 15.0" Properties=species:S:1:pos:R:3:forces:R:3 energy=        1.5372083142 pbc="T T T"
       O     0.0027467800    -0.0255880700     0.0000000000     -5.172699477      5.728880621     -0.000000000
       H     0.8898973400     0.1003053300     0.0000000000      4.582351338      0.081361004     -0.000000000
       H    -0.2121741300     1.2347429100     0.0000000000      0.590348139     -5.810241625     -0.000000000
