       3
Lattice="15.0 0.0 0.0 0.0 15.0 0.0 0.0 0.0 15.0" Properties=species:S:1:pos:R:3:forces:R:3 energy=        2.4433436611 pbc="T T T"
       O     0.0116117000     0.0033007300     0.0000000000      0.397071949      2.009109707     -0.000000000
       H     1.1032616300    -0.2656562800     0.0000000000     -4.505213990      2.832931041     -0.000000000
       H    -0.5662408600     1.1422208700     0.0000000000      4.108142041     -4.842040747     -0.000000000
