       3
Lattice="15.0 0.0 0.0 0.0 15.0 0.0 0.0 0.0 15.0" Properties=species:S:1:pos:R:3:forces:R:3 energy=        1.0996860280 pbc="T T T"
       O    -0.0208047600    -0.0209723100     0.0000000000      5.535344699      5.630036930     -0.000000000
       H     1.1063857000     0.2079019300     0.0000000000     -4.331739932     -2.132998525     -0.000000000
       H    -0.0548797300     1.0538908600     0.0000000000     -1.203604766     -3.497038405     -0.000000000
