       3
Lattice="15.0 0.0 0.0 0.0 15.0 0.0 0.0 0.0 15.0" Properties=species:S:1:pos:R:3:forces:R:3 energy=        4.7944890457 pbc="T T T"
       O    -0.0248052700     0.0030026600     0.0000000000      5.125836677    -36.407120617     -0.000000000
       H     1.1031223900     0.1841935200     0.0000000000     -3.750435550     -2.721264224     -0.000000000
       H     0.0118735700     0.6970989000     0.0000000000     -1.375401127     39.128384841     -0.000000000
