       3
Lattice="15.0 0.0 0.0 0.0 15.0 0.0 0.0 0.0 15.0" Properties=species:S:1:pos:R:3:forces:R:3 energy=        5.1909769237 pbc="T T T"
       O    -0.0109237800     0.0267038200     0.0000000000     21.974748399    -38.141266086     -0.000000000
       H     1.2085987800    -0.1434687500     0.0000000000     -6.456672749      1.973491375     -0.000000000
       H    -0.3139209700     0.6486086000     0.0000000000    -15.518075650     36.167774660     -0.000000000
