       3
Lattice="15.0 0.0 0.0 0.0 15.0 0.0 0.0 0.0 15.0" Properties=species:S:1:pos:R:3:forces:R:3 energy=        3.2800223507 pbc="T T T"
       O    -0.0210196700     0.0195211700     0.0000000000      6.138846659     -7.545571807     -0.000000000
       H     1.4629545200    -0.1939278500     0.0000000000     -5.315791565      1.818210503     -0.000000000
       H    -0.4080487800     0.8130628900     0.0000000000     -0.823055093      5.727361252     -0.000000000
