       3
Lattice="15.0 0.0 0.0 0.0 15.0 0.0 0.0 0.0 15.0" Properties=species:S:1:pos:R:3:forces:R:3 energy=        1.1646378648 pbc="T T T"
       O    -0.0007018000    -0.0242040800     0.0000000000     -3.941924874      5.834667425     -0.000000000
       H     0.8896931000     0.1386033400     0.0000000000      4.061470788     -0.377668956     -0.000000000
       H    -0.1572373700     1.1744796800     0.0000000000     -0.119545915     -5.456998469     -0.000000000
