       3
Lattice="15.0 0.0 0.0 0.0 15.0 0.0 0.0 0.0 15.0" Properties=species:S:1:pos:R:3:forces:R:3 energy=        3.0780069803 pbc="T T T"
       O    -0.0087550100     0.0236675900     0.0000000000      3.097637086     -2.968275055     -0.000000000
       H     1.3900443700    -0.3015262200     0.0000000000     -5.338656808      2.680116989     -0.000000000
       H    -0.5297904100     0.8548549700     0.0000000000      2.241019722      0.288158065     -0.000000000
