       3
Lattice="15.0 0.0 0.0 0.0 15.0 0.0 0.0 0.0 15.0" Properties=species:S:1:pos:R:3:forces:R:3 energy=       10.3798230108 pbc="T T T"
       O     0.0175955000    -0.0064579800     0.0000000000    -85.772148548    -10.227177569     -0.000000000
       H     0.5977438400     0.0838952400     0.0000000000     87.544815743     10.606178871     -0.000000000
       H    -0.1556813200     0.9475432800     0.0000000000     -1.772667246     -0.379001302     -0.000000000
