       3
Lattice="15.0 0.0 0.0 0.0 15.0 0.0 0.0 0.0 15.0" Properties=species:S:1:pos:R:3:forces:R:3 energy=        8.4078782387 pbc="T T T"
       O     0.0223605500     0.0113290600     0.0000000000    -68.861667361     -0.001197569     -0.000000000
       H     0.6315657400    -0.0571392700     0.0000000000     71.545449099     -7.841821447     -0.000000000
       H    -0.2651317900     0.8062852100     0.0000000000     -2.683781739      7.843018964     -0.000000000
