       3
Lattice="15.0 0.0 0.0 0.0 15.0 0.0 0.0 0.0 15.0" Properties=species:S:1:pos:R:3:forces:R:3 energy=        0.9303159777 pbc="T T T"
       O     0.0091547600     0.0117928500     0.0000000000     -6.340564812     -8.168945936     -0.000000000
       H     0.8486668300    -0.0644367100     0.0000000000      8.920793574     -0.381525818     -0.000000000
       H    -0.2726476800     0.8062228600     0.0000000000     -2.580228762      8.550471754     -0.000000000
