       3
Lattice="15.0 0.0 0.0 0.0 15.0 0.0 0.0 0.0 15.0" Properties=species:S:1:pos:R:3:forces:R:3 energy=       16.3993053633 pbc="T T T"
       O    -0.0178331600     0.0236322000     0.0000000000     33.691744171   -126.209060143     -0.000000000
       H     1.1365706200     0.0072926000     0.0000000000     -5.732711052     -0.070690715     -0.000000000
       H    -0.1322319800     0.5465948600     0.0000000000    -27.959033119    126.279750858     -0.000000000
