       3
Lattice="15.0 0.0 0.0 0.0 15.0 0.0 0.0 0.0 15.0" Properties=species:S:1:pos:R:3:forces:R:3 energy=        0.5128516150 pbc="T T T"
       O     0.0025457600     0.0091049400     0.0000000000      0.385398210     -8.913712547     -0.000000000
       H     0.9214075500    -0.0310027700     0.0000000000      2.151980063      0.029359338     -0.000000000
       H    -0.2404978900     0.8154480400     0.0000000000     -2.537378273      8.884353209     -0.000000000
