       3
Lattice="15.0 0.0 0.0 0.0 15.0 0.0 0.0 0.0 15.0" Properties=species:S:1:pos:R:3:forces:R:3 energy=        1.2943440301 pbc="T T T"
       O    -0.0113235200    -0.0087566200     0.0000000000     -0.405025969     -6.718210988     -0.000000000
       H     0.8875508300     0.2224941800     0.0000000000      4.119464824     -2.730699406     -0.000000000
       H     0.0134811900     0.8454256200     0.0000000000     -3.714438855      9.448910394     -0.000000000
