       3
Lattice="15.0 0.0 0.0 0.0 15.0 0.0 0.0 0.0 15.0" Properties=species:S:1:pos:R:3:forces:R:3 energy=        3.3860471788 pbc="T T T"
       O     0.0030610500    -0.0310048300     0.0000000000    -20.150071517     -0.622660236     -0.000000000
       H     0.7096076000     0.2534996000     0.0000000000     22.418598302      4.935430406     -0.000000000
       H    -0.0368680400     1.1675149500     0.0000000000     -2.268526785     -4.312770170     -0.000000000
