       3
Lattice="15.0 0.0 0.0 0.0 15.0 0.0 0.0 0.0 15.0" Properties=species:S:1:pos:R:3:forces:R:3 energy=        1.3593201477 pbc="T T T"
       O    -0.0258335600    -0.0216242600     0.0000000000      6.150328337      5.164555504     -0.000000000
       H     1.1426539400     0.2437679100     0.0000000000     -4.512313426     -2.463253488     -0.000000000
       H    -0.0113364600     1.0283718400     0.0000000000     -1.638014962     -2.701302015     -0.000000000
