       3
Lattice="15.0 0.0 0.0 0.0 15.0 0.0 0.0 0.0 15.0" Properties=species:S:1:pos:R:3:forces:R:3 energy=        0.8449267328 pbc="T T T"
       O    -0.0166910100    -0.0156710100     0.0000000000      3.259080278      0.678133098     -0.000000000
       H     0.9608694700     0.2534965100     0.0000000000     -0.176766768     -3.116902114     -0.000000000
       H     0.0253493000     0.9241600000     0.0000000000     -3.082313510      2.438769016     -0.000000000
