       3
Lattice="15.0 0.0 0.0 0.0 15.0 0.0 0.0 0.0 15.0" Properties=species:S:1:pos:R:3:forces:R:3 energy=        2.7659154853 pbc="T T T"
       O    -0.0055946000     0.0277394800     0.0000000000      5.731318439     -6.786890843     -0.000000000
       H     1.3170994100    -0.2966621400     0.0000000000     -5.843781116      2.951557220     -0.000000000
       H    -0.5070034400     0.7853665500     0.0000000000      0.112462676      3.835333623     -0.000000000
