       3
Lattice="15.0 0.0 0.0 0.0 15.0 0.0 0.0 0.0 15.0" Properties=species:S:1:pos:R:3:forces:R:3 energy=       11.1273522556 pbc="T T T"
       O     0.0004136300     0.0296599700     0.0000000000     39.498718488    -87.533907112     -0.000000000
       H     0.9548209600    -0.0954412500     0.0000000000     -1.068255661      0.876089520     -0.000000000
       H    -0.2400748300     0.5536635200     0.0000000000    -38.430462827     86.657817643     -0.000000000
