       3
Lattice="15.0 0.0 0.0 0.0 15.0 0.0 0.0 0.0 15.0" Properties=species:S:1:pos:R:3:forces:R:3 energy=        0.8939139869 pbc="T T T"
       O    -0.0041503900    -0.0228200900     0.0000000000     -2.629706323      5.589181002     -0.000000000
       H     0.8894888500     0.1769013600     0.0000000000      3.608670203     -0.948758032     -0.000000000
       H    -0.1023006100     1.1142164500     0.0000000000     -0.978963880     -4.640422970     -0.000000000
