       3
Lattice="15.0 0.0 0.0 0.0 15.0 0.0 0.0 0.0 15.0" Properties=species:S:1:pos:R:3:forces:R:3 energy=        4.3909257257 pbc="T T T"
       O     0.0214943600     0.0393367900     0.0000000000     14.077334534    -26.872469035     -0.000000000
       H     0.8087964200    -0.2723399700     0.0000000000      7.285861880     -1.342300112     -0.000000000
       H    -0.4286213400     0.5769844400     0.0000000000    -21.363196414     28.214769095     -0.000000000
