       3
Lattice="15.0 0.0 0.0 0.0 15.0 0.0 0.0 0.0 15.0" Properties=species:S:1:pos:R:3:forces:R:3 energy=        6.2505528708 pbc="T T T"
       O     0.0047039800    -0.0114109500     0.0000000000    -40.515202545    -16.747152039     -0.000000000
       H     0.6345551900     0.2297920600     0.0000000000     46.059521787      9.706885288     -0.000000000
       H     0.0121088800     0.8802529600     0.0000000000     -5.544319241      7.040266751     -0.000000000
