       3
Lattice="15.0 0.0 0.0 0.0 15.0 0.0 0.0 0.0 15.0" Properties=species:S:1:pos:R:3:forces:R:3 energy=        2.9720868916 pbc="T T T"
       O    -0.0298479500     0.0081511700     0.0000000000      6.382940160     -7.014531487     -0.000000000
       H     1.4644492400    -0.0504621800     0.0000000000     -5.517445081      0.735510018     -0.000000000
       H    -0.2694284400     0.8500467600     0.0000000000     -0.865495079      6.279021521     -0.000000000
