       3
Lattice="15.0 0.0 0.0 0.0 15.0 0.0 0.0 0.0 15.0" Properties=species:S:1:pos:R:3:forces:R:3 energy=        1.5937294324 pbc="T T T"
       O     0.0109482000    -0.0150246200     0.0000000000    -11.428456565      5.361615227     -0.000000000
       H     0.8523038200    -0.0048618800     0.0000000000      9.652655452      0.444103568     -0.000000000
       H    -0.3047459000     1.1722608000     0.0000000000      1.775801114     -5.805718795     -0.000000000
