       3
Lattice="15.0 0.0 0.0 0.0 15.0 0.0 0.0 0.0 15.0" Properties=species:S:1:pos:R:3:forces:R:3 energy=       15.4837019479 pbc="T T T"
       O    -0.0046273700     0.0231684100     0.0000000000     28.060278324   -122.958976467     -0.000000000
       H     0.9194695200     0.0145900400     0.0000000000      1.819524081     -0.853645528     -0.000000000
       H    -0.1247160900     0.5466572100     0.0000000000    -29.879802405    123.812621995     -0.000000000
