       3
Lattice="15.0 0.0 0.0 0.0 15.0 0.0 0.0 0.0 15.0" Properties=species:S:1:pos:R:3:forces:R:3 energy=       15.2767993527 pbc="T T T"
       O     0.0137838000    -0.0230156300     0.0000000000    -93.763004677    -48.312242862     -0.000000000
       H     0.4913506600     0.2656602400     0.0000000000     98.916332785     48.444128895     -0.000000000
       H     0.0112112000     1.0285589000     0.0000000000     -5.153328159     -0.131886033     -0.000000000
