       3
Lattice="15.0 0.0 0.0 0.0 15.0 0.0 0.0 0.0 15.0" Properties=species:S:1:pos:R:3:forces:R:3 energy=        0.8610098756 pbc="T T T"
       O    -0.0154128600    -0.0023787100     0.0000000000      5.655446589     -0.043047589     -0.000000000
       H     1.1763064000     0.0285689700     0.0000000000     -5.689541953     -0.097800337     -0.000000000
       H    -0.2103787700     0.9381310400     0.0000000000      0.034095364      0.140847977     -0.000000000
