       3
Lattice="15.0 0.0 0.0 0.0 15.0 0.0 0.0 0.0 15.0" Properties=species:S:1:pos:R:3:forces:R:3 energy=        6.4579069002 pbc="T T T"
       O     0.0173317500     0.0106771000     0.0000000000    -49.200723717     -9.663918277     -0.000000000
       H     0.6678339800    -0.0212732900     0.0000000000     53.708194674     -3.236084063     -0.000000000
       H    -0.2215885200     0.7807661900     0.0000000000     -4.507470957     12.900002341     -0.000000000
