       3
Lattice="15.0 0.0 0.0 0.0 15.0 0.0 0.0 0.0 15.0" Properties=species:S:1:pos:R:3:forces:R:3 energy=        5.0926117471 pbc="T T T"
       O    -0.0298462800    -0.0034889000     0.0000000000     -0.242586577    -30.893934056     -0.000000000
       H     1.0677709600     0.2942248100     0.0000000000     -1.573369530     -4.318457042     -0.000000000
       H     0.1272323100     0.6900925900     0.0000000000      1.815956108     35.212391046     -0.000000000
