       3
Lattice="15.0 0.0 0.0 0.0 15.0 0.0 0.0 0.0 15.0" Properties=species:S:1:pos:R:3:forces:R:3 energy=        1.6528401738 pbc="T T T"
       O     0.0197886900     0.0021849800     0.0000000000     -5.944031406      3.795708996     -0.000000000
       H     0.9224287700    -0.2224928600     0.0000000000      1.915350426      1.411616983     -0.000000000
       H    -0.5151817000     1.1167642000     0.0000000000      4.028680980     -5.207325979     -0.000000000
