       3
Lattice="15.0 0.0 0.0 0.0 15.0 0.0 0.0 0.0 15.0" Properties=species:S:1:pos:R:3:forces:R:3 energy=        2.6146513934 pbc="T T T"
       O     0.0276392100     0.0006464000     0.0000000000    -11.670126956      5.297841246     -0.000000000
       H     0.8502659800    -0.2583584000     0.0000000000      7.431119713     -0.064513585     -0.000000000
       H    -0.5676131700     1.1770482200     0.0000000000      4.239007242     -5.233327712     -0.000000000
