       3
Lattice="15.0 0.0 0.0 0.0 15.0 0.0 0.0 0.0 15.0" Properties=species:S:1:pos:R:3:forces:R:3 energy=        2.4097438227 pbc="T T T"
       O    -0.0012781500    -0.0132923000     0.0000000000    -15.742541958     -4.767225055     -0.000000000
       H     0.7433947000     0.2249275400     0.0000000000     19.921744747      1.165847173     -0.000000000
       H    -0.0017899000     0.9149763900     0.0000000000     -4.179202789      3.601377883     -0.000000000
