       3
Lattice="15.0 0.0 0.0 0.0 15.0 0.0 0.0 0.0 15.0" Properties=species:S:1:pos:R:3:forces:R:3 energy=        2.7275594639 pbc="T T T"
       O     0.0200768700    -0.0032709000     0.0000000000     -2.254872678      2.442465544     -0.000000000
       H     0.9955779700    -0.2656549600     0.0000000000     -1.608565327      2.362849600     -0.000000000
       H    -0.5929054300     1.2465158500     0.0000000000      3.863438005     -4.805315144     -0.000000000
