       3
Lattice="15.0 0.0 0.0 0.0 15.0 0.0 0.0 0.0 15.0" Properties=species:S:1:pos:R:3:forces:R:3 energy=        2.9892251585 pbc="T T T"
       O     0.0266736500    -0.0064226000     0.0000000000    -12.265307588      5.285253530     -0.000000000
       H     0.8512175900    -0.2249235800     0.0000000000      8.503696475     -0.124640404     -0.000000000
       H    -0.5532397600     1.2558033800     0.0000000000      3.761611113     -5.160613126     -0.000000000
