       3
Lattice="15.0 0.0 0.0 0.0 15.0 0.0 0.0 0.0 15.0" Properties=species:S:1:pos:R:3:forces:R:3 energy=        0.7800358658 pbc="T T T"
       O     0.0208169700     0.0268119000     0.0000000000     -2.649952947     -3.413769127     -0.000000000
       H     0.8828972300    -0.2820672500     0.0000000000      2.157492460      1.060288169     -0.000000000
       H    -0.4919716700     0.7854912600     0.0000000000      0.492460487      2.353481010     -0.000000000
