       3
Lattice="15.0 0.0 0.0 0.0 15.0 0.0 0.0 0.0 15.0" Properties=species:S:1:pos:R:3:forces:R:3 energy=        8.1696798175 pbc="T T T"
       O     0.0124917700    -0.0305074700     0.0000000000    -54.870252553    -14.833071430     -0.000000000
       H     0.6009723400     0.2200661000     0.0000000000     56.811242598     19.445826334     -0.000000000
       H    -0.0779060200     1.1930547500     0.0000000000     -1.940990045     -4.612754853     -0.000000000
