       3
Lattice="15.0 0.0 0.0 0.0 15.0 0.0 0.0 0.0 15.0" Properties=species:S:1:pos:R:3:forces:R:3 energy=        2.5320017554 pbc="T T T"
       O     0.0229996200     0.0179752100     0.0000000000    -24.708876836      1.385209324     -0.000000000
       H     0.7392842100    -0.1696030400     0.0000000000     25.091579191     -4.966126513     -0.000000000
       H    -0.3829958200     0.8132707300     0.0000000000     -0.382702304      3.580917188     -0.000000000
