       3
Lattice="15.0 0.0 0.0 0.0 15.0 0.0 0.0 0.0 15.0" Properties=species:S:1:pos:R:3:forces:R:3 energy=       31.9669094294 pbc="T T T"
       O    -0.0197137500     0.0212125400     0.0000000000     -5.758419319   -242.483619549     -0.000000000
       H     1.0282742200     0.1221879700     0.0000000000     -2.402684183     -2.732341519     -0.000000000
       H     0.0059137300     0.4701001400     0.0000000000      8.161103554    245.215961067     -0.000000000
