       3
Lattice="15.0 0.0 0.0 0.0 15.0 0.0 0.0 0.0 15.0" Properties=species:S:1:pos:R:3:forces:R:3 energy=        0.6230776797 pbc="T T T"
       O     0.0144839400     0.0128285100     0.0000000000     -2.559878368      1.014632194     -0.000000000
       H     0.9571674700    -0.2176301000     0.0000000000     -0.641687231      1.854374681     -0.000000000
       H    -0.4657301500     0.9429808100     0.0000000000      3.201565599     -2.869006823     -0.000000000
