       3
Lattice="15.0 0.0 0.0 0.0 15.0 0.0 0.0 0.0 15.0" Properties=species:S:1:pos:R:3:forces:R:3 energy=        2.0442586196 pbc="T T T"
       O    -0.0280039900    -0.0069479700     0.0000000000      5.451139333      1.790522897     -0.000000000
       H     1.3578866200     0.0571383900     0.0000000000     -5.813729636     -0.198602232     -0.000000000
       H    -0.1921277600     0.9820796400     0.0000000000      0.362590303     -1.591920665     -0.000000000
