       3
Lattice="15.0 0.0 0.0 0.0 15.0 0.0 0.0 0.0 15.0" Properties=species:S:1:pos:R:3:forces:R:3 energy=        0.8267205360 pbc="T T T"
       O     0.0128793100    -0.0008866300     0.0000000000    -11.531417983      4.024418398     -0.000000000
       H     0.8504006100    -0.0717315100     0.0000000000      9.499538370     -0.002776690     -0.000000000
       H    -0.3334927100     1.0147504600     0.0000000000      2.031879613     -4.021641759     -0.000000000
