       3
Lattice="15.0 0.0 0.0 0.0 15.0 0.0 0.0 0.0 15.0" Properties=species:S:1:pos:R:3:forces:R:3 energy=        7.3110401761 pbc="T T T"
       O    -0.0188109300     0.0107236100     0.0000000000      9.035629071    -60.206673066     -0.000000000
       H     1.0659025500     0.1148927300     0.0000000000     -3.642672339     -1.937493086     -0.000000000
       H    -0.0460431100     0.6438627500     0.0000000000     -5.392956733     62.144166100     -0.000000000
