       3
Lattice="15.0 0.0 0.0 0.0 15.0 0.0 0.0 0.0 15.0" Properties=species:S:1:pos:R:3:forces:R:3 energy=        1.6695175397 pbc="T T T"
       O    -0.0116883100    -0.0150581900     0.0000000000      4.099120910      5.279940137     -0.000000000
       H     1.1780401800     0.0212741700     0.0000000000     -5.575741273      0.098327773     -0.000000000
       H    -0.2712238100     1.1466586300     0.0000000000      1.476620312     -5.378267962     -0.000000000
