       3
Lattice="15.0 0.0 0.0 0.0 15.0 0.0 0.0 0.0 15.0" Properties=species:S:1:pos:R:3:forces:R:3 energy=        2.4410642694 pbc="T T T"
       O    -0.0027728800     0.0255489400     0.0000000000      4.466117520     -4.706454227     -0.000000000
       H     1.2812048600    -0.2966617000     0.0000000000     -5.896922655      3.033734704     -0.000000000
       H    -0.5158916300     0.8201315400     0.0000000000      1.430805135      1.672719523     -0.000000000
