       3
Lattice="15.0 0.0 0.0 0.0 15.0 0.0 0.0 0.0 15.0" Properties=species:S:1:pos:R:3:forces:R:3 energy=        2.6626041277 pbc="T T T"
       O    -0.0289068200     0.0035409700     0.0000000000      8.024140052    -13.015683783     -0.000000000
       H     1.3202583000     0.0644336300     0.0000000000     -5.939116792     -0.404981695     -0.000000000
       H    -0.1401709200     0.8083170400     0.0000000000     -2.085023260     13.420665478     -0.000000000
