       3
Lattice="15.0 0.0 0.0 0.0 15.0 0.0 0.0 0.0 15.0" Properties=species:S:1:pos:R:3:forces:R:3 energy=        1.9931067868 pbc="T T T"
       O    -0.0093940900     0.0170214400     0.0000000000      5.536089805     -4.852332673     -0.000000000
       H     1.2823259000    -0.1890624500     0.0000000000     -6.132876040      2.191495469     -0.000000000
       H    -0.4119263800     0.8478694500     0.0000000000      0.596786236      2.660837203     -0.000000000
