       3
Lattice="15.0 0.0 0.0 0.0 15.0 0.0 0.0 0.0 15.0" Properties=species:S:1:pos:R:3:forces:R:3 energy=        2.7682509651 pbc="T T T"
       O    -0.0446827900    -0.0167793800     0.0000000000      5.760835283      1.692955349     -0.000000000
       H     1.4315441300     0.2364695900     0.0000000000     -4.726315699     -1.488423173     -0.000000000
       H    -0.0010759600     0.9587795000     0.0000000000     -1.034519532     -0.204532227     -0.000000000
