       3
Lattice="15.0 0.0 0.0 0.0 15.0 0.0 0.0 0.0 15.0" Properties=species:S:1:pos:R:3:forces:R:3 energy=       10.1864708913 pbc="T T T"
       O     0.0115889400    -0.0200185300     0.0000000000    -69.886576413    -24.437306970     -0.000000000
       H     0.5633440100     0.2273613400     0.0000000000     73.923352207     25.469521610     -0.000000000
       H    -0.0259491800     1.0192921500     0.0000000000     -4.036775794     -1.032214640     -0.000000000
