       3
Lattice="15.0 0.0 0.0 0.0 15.0 0.0 0.0 0.0 15.0" Properties=species:S:1:pos:R:3:forces:R:3 energy=        1.7163341715 pbc="T T T"
       O    -0.0110736600    -0.0200912400     0.0000000000      4.016187315      5.924110335     -0.000000000
       H     1.1425193100     0.0571410300     0.0000000000     -5.179970097     -0.273427180     -0.000000000
       H    -0.2454569100     1.1906696000     0.0000000000      1.163782833     -5.650683155     -0.000000000
