       3
Lattice="15.0 0.0 0.0 0.0 15.0 0.0 0.0 0.0 15.0" Properties=species:S:1:pos:R:3:forces:R:3 energy=       12.7800107961 pbc="T T T"
       O     0.0184861200    -0.0227865200     0.0000000000    -94.003816370    -21.443304930     -0.000000000
       H     0.5637525000     0.1507653100     0.0000000000     95.237490510     26.306329798     -0.000000000
       H    -0.1358227000     1.1398186100     0.0000000000     -1.233674140     -4.863024919     -0.000000000
