       3
Lattice="15.0 0.0 0.0 0.0 15.0 0.0 0.0 0.0 15.0" Properties=species:S:1:pos:R:3:forces:R:3 energy=        8.9521278693 pbc="T T T"
       O     0.0295336800    -0.0027344100     0.0000000000    -75.099657038     15.804753891     -0.000000000
       H     0.6335037600    -0.1027320900     0.0000000000     72.104282698    -10.320045602     -0.000000000
       H    -0.3809135900     1.0750760400     0.0000000000      2.995374341     -5.484708289     -0.000000000
