       3
Lattice="15.0 0.0 0.0 0.0 15.0 0.0 0.0 0.0 15.0" Properties=species:S:1:pos:R:3:forces:R:3 energy=        3.6214013815 pbc="T T T"
       O     0.0267869000     0.0228536600     0.0000000000    -29.564018748      2.826330347     -0.000000000
       H     0.7024380500    -0.2030374100     0.0000000000     31.263334752     -8.617740329     -0.000000000
       H    -0.4062574200     0.7692805600     0.0000000000     -1.699316055      5.791409982     -0.000000000
