       3
Lattice="15.0 0.0 0.0 0.0 15.0 0.0 0.0 0.0 15.0" Properties=species:S:1:pos:R:3:forces:R:3 energy=        0.9227847750 pbc="T T T"
       O    -0.0091042400    -0.0000745200     0.0000000000      3.167887628    -10.526003146     -0.000000000
       H     0.9587968200     0.1124624500     0.0000000000     -0.015628149     -1.612986495     -0.000000000
       H    -0.0929893600     0.8176669300     0.0000000000     -3.152259427     12.138989641     -0.000000000
