       3
Lattice="15.0 0.0 0.0 0.0 15.0 0.0 0.0 0.0 15.0" Properties=species:S:1:pos:R:3:forces:R:3 energy=        1.6334941164 pbc="T T T"
       O    -0.0144350900     0.0105298800     0.0000000000      7.170692860     -7.041696645     -0.000000000
       H     1.2469744700    -0.0790311600     0.0000000000     -6.246011318      1.152088576     -0.000000000
       H    -0.2965676400     0.8408631500     0.0000000000     -0.924681542      5.889608069     -0.000000000
