       3
Lattice="15.0 0.0 0.0 0.0 15.0 0.0 0.0 0.0 15.0" Properties=species:S:1:pos:R:3:forces:R:3 energy=        1.8451255689 pbc="T T T"
       O     0.0085140100     0.0167867600     0.0000000000      1.245662789      0.049875054     -0.000000000
       H     1.1376266500    -0.2966599300     0.0000000000     -5.263179674      3.201715648     -0.000000000
       H    -0.5514444000     0.9591915100     0.0000000000      4.017516885     -3.251590754     -0.000000000
