       3
Lattice="15.0 0.0 0.0 0.0 15.0 0.0 0.0 0.0 15.0" Properties=species:S:1:pos:R:3:forces:R:3 energy=        2.9739550920 pbc="T T T"
       O     0.0099704300    -0.0279332100     0.0000000000    -18.710507606      3.569592965     -0.000000000
       H     0.7816357600     0.1027382500     0.0000000000     18.168598868      2.261037312     -0.000000000
       H    -0.2185570300     1.2695286900     0.0000000000      0.541908687     -5.830630277     -0.000000000
