       3
Lattice="15.0 0.0 0.0 0.0 15.0 0.0 0.0 0.0 15.0" Properties=species:S:1:pos:R:3:forces:R:3 energy=        1.9679300152 pbc="T T T"
       O     0.0062197900    -0.0152928600     0.0000000000      0.079816490      4.417722548     -0.000000000
       H     1.0333409300    -0.0863233200     0.0000000000     -2.687220951      1.155607595     -0.000000000
       H    -0.4107418200     1.2579807000     0.0000000000      2.607404409     -5.573330092     -0.000000000
