       3
Lattice="15.0 0.0 0.0 0.0 15.0 0.0 0.0 0.0 15.0" Properties=species:S:1:pos:R:3:forces:R:3 energy=        2.4790543276 pbc="T T T"
       O     0.0118510200    -0.0255135500     0.0000000000     -7.851969801      4.915984629     -0.000000000
       H     0.8899321500    -0.0121571200     0.0000000000      5.977717245      0.672725397     -0.000000000
       H    -0.3567027400     1.3460234000     0.0000000000      1.874252557     -5.588710027     -0.000000000
