       3
Lattice="15.0 0.0 0.0 0.0 15.0 0.0 0.0 0.0 15.0" Properties=species:S:1:pos:R:3:forces:R:3 energy=        5.4259122180 pbc="T T T"
       O    -0.0203911300     0.0086876600     0.0000000000      9.172029655    -44.963055043     -0.000000000
       H     1.1023750300     0.1124606900     0.0000000000     -4.411529117     -1.708270029     -0.000000000
       H    -0.0574366000     0.6786069600     0.0000000000     -4.760500538     46.671325072     -0.000000000
