       3
Lattice="15.0 0.0 0.0 0.0 15.0 0.0 0.0 0.0 15.0" Properties=species:S:1:pos:R:3:forces:R:3 energy=        7.8506503035 pbc="T T T"
       O    -0.0099948600     0.0162540100     0.0000000000     15.064258296    -67.758769153     -0.000000000
       H     0.9927881600     0.0455923800     0.0000000000     -1.873986705     -1.013415805     -0.000000000
       H    -0.1128479800     0.6253916000     0.0000000000    -13.190271591     68.772185009     -0.000000000
