       3
Lattice="15.0 0.0 0.0 0.0 15.0 0.0 0.0 0.0 15.0" Properties=species:S:1:pos:R:3:forces:R:3 energy=       29.6744297386 pbc="T T T"
       O     0.0348889500    -0.0016596100     0.0000000000   -231.683165460     32.700114619     -0.000000000
       H     0.4885654600    -0.0595691100     0.0000000000    229.481121778    -28.025133898     -0.000000000
       H    -0.3209662300     1.0148543800     0.0000000000      2.202043682     -4.674980772     -0.000000000
