       3
Lattice="15.0 0.0 0.0 0.0 15.0 0.0 0.0 0.0 15.0" Properties=species:S:1:pos:R:3:forces:R:3 energy=        3.3788000112 pbc="T T T"
       O     0.0147232600    -0.0159857700     0.0000000000    -29.772207857      4.000141413     -0.000000000
       H     0.7438380000     0.0358690600     0.0000000000     28.674012200      1.680084091     -0.000000000
       H    -0.2561920300     1.1467833400     0.0000000000      1.098195657     -5.680225505     -0.000000000
