       3
Lattice="15.0 0.0 0.0 0.0 15.0 0.0 0.0 0.0 15.0" Properties=species:S:1:pos:R:3:forces:R:3 energy=        7.2657019825 pbc="T T T"
       O     0.0302232700     0.0156300700     0.0000000000    -62.844472711     16.094206610     -0.000000000
       H     0.6310226300    -0.1671701200     0.0000000000     61.846525287    -16.883552623     -0.000000000
       H    -0.3893787200     0.8480565100     0.0000000000      0.997947372      0.789346012     -0.000000000
