       3
Lattice="15.0 0.0 0.0 0.0 15.0 0.0 0.0 0.0 15.0" Properties=species:S:1:pos:R:3:forces:R:3 energy=        6.9105535468 pbc="T T T"
       O     0.0142584900     0.0358423300     0.0000000000     26.172067756    -48.985117486     -0.000000000
       H     0.8454383400    -0.2006075700     0.0000000000      5.699189096     -0.177148166     -0.000000000
       H    -0.3504229800     0.5607113900     0.0000000000    -31.871256852     49.162265652     -0.000000000
