       3
Lattice="15.0 0.0 0.0 0.0 15.0 0.0 0.0 0.0 15.0" Properties=species:S:1:pos:R:3:forces:R:3 energy=        1.7073427595 pbc="T T T"
       O     0.0159892000    -0.0085330600     0.0000000000     -8.870075918      5.089832063     -0.000000000
       H     0.8876552600    -0.1148931700     0.0000000000      5.829506653      0.590259179     -0.000000000
       H    -0.4201046400     1.1792671000     0.0000000000      3.040569265     -5.680091241     -0.000000000
