       3
Lattice="15.0 0.0 0.0 0.0 15.0 0.0 0.0 0.0 15.0" Properties=species:S:1:pos:R:3:forces:R:3 energy=        3.4113215196 pbc="T T T"
       O     0.0314770000     0.0172431700     0.0000000000    -32.346690200     11.686392739     -0.000000000
       H     0.7032202200    -0.2437670300     0.0000000000     29.118769188     -9.072750470     -0.000000000
       H    -0.4814758600     0.8990529900     0.0000000000      3.227920961     -2.613642217     -0.000000000
