       3
Lattice="15.0 0.0 0.0 0.0 15.0 0.0 0.0 0.0 15.0" Properties=species:S:1:pos:R:3:forces:R:3 energy=        9.4110742321 pbc="T T T"
       O     0.0118649100    -0.0313140200     0.0000000000    -59.406693583    -22.268607786     -0.000000000
       H     0.5648735400     0.2583645600     0.0000000000     62.345328226     25.992784082     -0.000000000
       H    -0.0318574500     1.1675565100     0.0000000000     -2.938634644     -3.724176296     -0.000000000
