       3
Lattice="15.0 0.0 0.0 0.0 15.0 0.0 0.0 0.0 15.0" Properties=species:S:1:pos:R:3:forces:R:3 energy=        0.7521194546 pbc="T T T"
       O    -0.0154494900    -0.0198975100     0.0000000000      3.073484543      3.958096966     -0.000000000
       H     0.9614474000     0.2510649100     0.0000000000     -0.473613418     -2.804602973     -0.000000000
       H     0.0050676200     0.9936692000     0.0000000000     -2.599871125     -1.153493993     -0.000000000
