       3
Lattice="15.0 0.0 0.0 0.0 15.0 0.0 0.0 0.0 15.0" Properties=species:S:1:pos:R:3:forces:R:3 energy=        1.6098937467 pbc="T T T"
       O     0.0236264900     0.0187817600     0.0000000000    -17.655964930      2.239143330     -0.000000000
       H     0.7753830100    -0.2079014900     0.0000000000     16.480133439     -3.142736879     -0.000000000
       H    -0.4290444000     0.8387689700     0.0000000000      1.175831491      0.903593550     -0.000000000
