       3
Lattice="15.0 0.0 0.0 0.0 15.0 0.0 0.0 0.0 15.0" Properties=species:S:1:pos:R:3:forces:R:3 energy=        1.5904247619 pbc="T T T"
       O     0.0094185100    -0.0053422400     0.0000000000    -19.982151662      1.587987853     -0.000000000
       H     0.7785767000     0.0407318200     0.0000000000     20.218414248      0.362462879     -0.000000000
       H    -0.2067404900     0.9729999500     0.0000000000     -0.236262586     -1.950450732     -0.000000000
