       3
Lattice="15.0 0.0 0.0 0.0 15.0 0.0 0.0 0.0 15.0" Properties=species:S:1:pos:R:3:forces:R:3 energy=        0.0947453548 pbc="T T T"
       O    -0.0006268600    -0.0008065500     0.0000000000     -1.232716867     -1.587628207     -0.000000000
       H     0.9227328300     0.0382984600     0.0000000000      2.231147247     -0.460060407     -0.000000000
       H    -0.1914694000     0.9034491800     0.0000000000     -0.998430380      2.047688614     -0.000000000
