       3
Lattice="15.0 0.0 0.0 0.0 15.0 0.0 0.0 0.0 15.0" Properties=species:S:1:pos:R:3:forces:R:3 energy=        1.6543694809 pbc="T T T"
       O    -0.0298845800    -0.0093676300     0.0000000000      6.655155013     -1.602670504     -0.000000000
       H     1.2495902300     0.1720337600     0.0000000000     -5.378395232     -1.614948967     -0.000000000
       H    -0.0539820500     0.9055849300     0.0000000000     -1.276759730      3.217619472     -0.000000000
