       3
Lattice="15.0 0.0 0.0 0.0 15.0 0.0 0.0 0.0 15.0" Properties=species:S:1:pos:R:3:forces:R:3 energy=        2.2407966455 pbc="T T T"
       O    -0.0147599000    -0.0015330300     0.0000000000      3.088948245    -18.541517298     -0.000000000
       H     0.9589662600     0.1866268800     0.0000000000      0.297348272     -2.863804091     -0.000000000
       H    -0.0033975100     0.7666496600     0.0000000000     -3.386296517     21.405321388     -0.000000000
