       3
Lattice="15.0 0.0 0.0 0.0 15.0 0.0 0.0 0.0 15.0" Properties=species:S:1:pos:R:3:forces:R:3 energy=        0.6667327893 pbc="T T T"
       O     0.0024708200    -0.0142925800     0.0000000000     -5.419958779      4.892746782     -0.000000000
       H     0.8883678100     0.0693021100     0.0000000000      4.989677829     -0.119258465     -0.000000000
       H    -0.2062658600     1.0864785400     0.0000000000      0.430280951     -4.773488317     -0.000000000
