       3
Lattice="15.0 0.0 0.0 0.0 15.0 0.0 0.0 0.0 15.0" Properties=species:S:1:pos:R:3:forces:R:3 energy=        0.1992020696 pbc="T T T"
       O     0.0037994900     0.0107180500     0.0000000000      1.850233248     -3.484566132     -0.000000000
       H     0.9936051400    -0.1075996900     0.0000000000     -2.027408205      1.179068357     -0.000000000
       H    -0.3325950300     0.8664445200     0.0000000000      0.177175008      2.305497775     -0.000000000
