       3
Lattice="15.0 0.0 0.0 0.0 15.0 0.0 0.0 0.0 15.0" Properties=species:S:1:pos:R:3:forces:R:3 energy=        9.7398770909 pbc="T T T"
       O     0.0026329100     0.0383420700     0.0000000000     48.933631944    -68.624328510     -0.000000000
       H     1.0260669500    -0.2054729800     0.0000000000     -4.518746175      2.483454090     -0.000000000
       H    -0.3465453800     0.5259048300     0.0000000000    -44.414885768     66.140874420     -0.000000000
