       3
Lattice="15.0 0.0 0.0 0.0 15.0 0.0 0.0 0.0 15.0" Properties=species:S:1:pos:R:3:forces:R:3 energy=        1.5903130211 pbc="T T T"
       O    -0.0075118200     0.0078010300     0.0000000000      6.487929356    -18.963400970     -0.000000000
       H     0.9939440100     0.0407291800     0.0000000000     -1.831886465     -0.711526139     -0.000000000
       H    -0.1534113400     0.7644100000     0.0000000000     -4.656042892     19.674927161     -0.000000000
