       3
Lattice="15.0 0.0 0.0 0.0 15.0 0.0 0.0 0.0 15.0" Properties=species:S:1:pos:R:3:forces:R:3 energy=        0.9004889408 pbc="T T T"
       O    -0.0113496200    -0.0087957500     0.0000000000      4.299557882      3.891277563     -0.000000000
       H     1.1409897800     0.0261378100     0.0000000000     -5.282620308     -0.028344215     -0.000000000
       H    -0.2395486400     1.0424052300     0.0000000000      0.983062426     -3.862933348     -0.000000000
