       3
Lattice="15.0 0.0 0.0 0.0 15.0 0.0 0.0 0.0 15.0" Properties=species:S:1:pos:R:3:forces:R:3 energy=        2.4093570754 pbc="T T T"
       O     0.0087899800     0.0054912700     0.0000000000      0.886491952      1.847924294     -0.000000000
       H     1.1391561800    -0.2656567200     0.0000000000     -5.014951733      2.866487758     -0.000000000
       H    -0.5573526700     1.1074558800     0.0000000000      4.128459782     -4.714412052     -0.000000000
