       3
Lattice="15.0 0.0 0.0 0.0 15.0 0.0 0.0 0.0 15.0" Properties=species:S:1:pos:R:3:forces:R:3 energy=        5.4848889243 pbc="T T T"
       O    -0.0188353500    -0.0009555900     0.0000000000     -2.864783321    -36.897787862     -0.000000000
       H     0.9226632100     0.2632233600     0.0000000000      3.161636245     -4.439505818     -0.000000000
       H     0.0975878200     0.6808881900     0.0000000000     -0.296852872     41.337293680     -0.000000000
