       3
Lattice="15.0 0.0 0.0 0.0 15.0 0.0 0.0 0.0 15.0" Properties=species:S:1:pos:R:3:forces:R:3 energy=        1.4286240458 pbc="T T T"
       O    -0.0088788000    -0.0230883300     0.0000000000      3.267451074      6.368795641     -0.000000000
       H     1.0705259600     0.0954399200     0.0000000000     -3.981511448     -0.679264641     -0.000000000
       H    -0.2082965300     1.1999363500     0.0000000000      0.714060374     -5.689531000     -0.000000000
