       3
Lattice="15.0 0.0 0.0 0.0 15.0 0.0 0.0 0.0 15.0" Properties=species:S:1:pos:R:3:forces:R:3 energy=        1.7372530143 pbc="T T T"
       O     0.0019066800     0.0024587900     0.0000000000     -9.337025547    -12.031109033     -0.000000000
       H     0.8136890800     0.0814610000     0.0000000000     13.302608798     -0.690978182     -0.000000000
       H    -0.1226338500     0.8084625300     0.0000000000     -3.965583251     12.722087266     -0.000000000
