       3
Lattice="15.0 0.0 0.0 0.0 15.0 0.0 0.0 0.0 15.0" Properties=species:S:1:pos:R:3:forces:R:3 energy=        7.0752362998 pbc="T T T"
       O    -0.0260590000     0.0013895500     0.0000000000     -3.049886947    -48.429742486     -0.000000000
       H     1.0309248000     0.2607904400     0.0000000000     -0.928193928     -4.286468749     -0.000000000
       H     0.1039707100     0.6461024200     0.0000000000      3.978080875     52.716211287     -0.000000000
