       3
Lattice="15.0 0.0 0.0 0.0 15.0 0.0 0.0 0.0 15.0" Properties=species:S:1:pos:R:3:forces:R:3 energy=        8.6438071241 pbc="T T T"
       O     0.0421492400     0.0135140400     0.0000000000    -63.561146613     33.457443492     -0.000000000
       H     0.5951628800    -0.2796321300     0.0000000000     58.895834118    -28.349977715     -0.000000000
       H    -0.5427955200     0.9941019900     0.0000000000      4.665312494     -5.107465777     -0.000000000
