       3
Lattice="15.0 0.0 0.0 0.0 15.0 0.0 0.0 0.0 15.0" Properties=species:S:1:pos:R:3:forces:R:3 energy=        3.1448484084 pbc="T T T"
       O     0.0023836700    -0.0435297100     0.0000000000    -10.465515551      2.946408995     -0.000000000
       H     0.7837084100     0.2437723100     0.0000000000     11.227329303      2.083761979     -0.000000000
       H    -0.1002183700     1.3760217600     0.0000000000     -0.761813753     -5.030170974     -0.000000000
