       3
Lattice="15.0 0.0 0.0 0.0 15.0 0.0 0.0 0.0 15.0" Properties=species:S:1:pos:R:3:forces:R:3 energy=        2.3312585907 pbc="T T T"
       O    -0.0038866400    -0.0399551700     0.0000000000     -4.995898050      5.024746253     -0.000000000
       H     0.8193987200     0.2820698900     0.0000000000      6.526548321     -0.097613315     -0.000000000
       H    -0.0363934200     1.2809935400     0.0000000000     -1.530650271     -4.927132938     -0.000000000
