       3
Lattice="15.0 0.0 0.0 0.0 15.0 0.0 0.0 0.0 15.0" Properties=species:S:1:pos:R:3:forces:R:3 energy=        1.3289051516 pbc="T T T"
       O    -0.0157515500    -0.0086411500     0.0000000000      4.804681212      3.752009323     -0.000000000
       H     1.2133568100     0.0237053300     0.0000000000     -5.855264131      0.045144376     -0.000000000
       H    -0.2420539400     1.0423844400     0.0000000000      1.050582918     -3.797153751     -0.000000000
