       3
Lattice="15.0 0.0 0.0 0.0 15.0 0.0 0.0 0.0 15.0" Properties=species:S:1:pos:R:3:forces:R:3 energy=        8.9363350829 pbc="T T T"
       O    -0.0099582200     0.0337728100     0.0000000000     38.630945256    -61.134198661     -0.000000000
       H     1.2076471700    -0.1769035600     0.0000000000     -6.598726369      2.395644191     -0.000000000
       H    -0.3282943700     0.5698534300     0.0000000000    -32.032218887     58.738554470     -0.000000000
