       3
Lattice="15.0 0.0 0.0 0.0 15.0 0.0 0.0 0.0 15.0" Properties=species:S:1:pos:R:3:forces:R:3 energy=        1.9275165899 pbc="T T T"
       O    -0.0075362500    -0.0038781700     0.0000000000     -3.411506658    -13.244707836     -0.000000000
       H     0.8507046700     0.1890598100     0.0000000000      7.555558645     -2.149699082     -0.000000000
       H    -0.0097804100     0.8014354400     0.0000000000     -4.144051987     15.394406970     -0.000000000
