       3
Lattice="15.0 0.0 0.0 0.0 15.0 0.0 0.0 0.0 15.0" Properties=species:S:1:pos:R:3:forces:R:3 energy=        3.0747562619 pbc="T T T"
       O    -0.0122036000     0.0250515800     0.0000000000      5.877573398     -7.110319524     -0.000000000
       H     1.3898401300    -0.2632282000     0.0000000000     -5.573367116      2.500238825     -0.000000000
       H    -0.4748536500     0.7945917300     0.0000000000     -0.304206282      4.610080699     -0.000000000
