       3
Lattice="15.0 0.0 0.0 0.0 15.0 0.0 0.0 0.0 15.0" Properties=species:S:1:pos:R:3:forces:R:3 energy=        1.5868242547 pbc="T T T"
       O     0.0065706900    -0.0031908300     0.0000000000      0.559125161      3.372830306     -0.000000000
       H     1.0679101900    -0.1556249900     0.0000000000     -3.877869511      1.860876952     -0.000000000
       H    -0.4508821200     1.1352145700     0.0000000000      3.318744401     -5.233707258     -0.000000000
