       3
Lattice="15.0 0.0 0.0 0.0 15.0 0.0 0.0 0.0 15.0" Properties=species:S:1:pos:R:3:forces:R:3 energy=        7.4907723603 pbc="T T T"
       O     0.0147737800    -0.0042674400     0.0000000000    -63.832852695     -8.256913444     -0.000000000
       H     0.6336383900     0.0838948000     0.0000000000     66.102748131      6.509491563     -0.000000000
       H    -0.1467931300     0.9127782900     0.0000000000     -2.269895435      1.747421881     -0.000000000
