       3
Lattice="15.0 0.0 0.0 0.0 15.0 0.0 0.0 0.0 15.0" Properties=species:S:1:pos:R:3:forces:R:3 energy=        1.9075222838 pbc="T T T"
       O     0.0145344500     0.0245468400     0.0000000000      0.048137450    -16.026002308     -0.000000000
       H     0.8469678700    -0.1696043600     0.0000000000      7.148267481     -0.307303331     -0.000000000
       H    -0.3563312500     0.7089757600     0.0000000000     -7.196404932     16.333305639     -0.000000000
