       3
Lattice="15.0 0.0 0.0 0.0 15.0 0.0 0.0 0.0 15.0" Properties=species:S:1:pos:R:3:forces:R:3 energy=        1.8513231716 pbc="T T T"
       O     0.0182084900     0.0001490400     0.0000000000     -3.889775986      3.359554460     -0.000000000
       H     0.9589012500    -0.2249249000     0.0000000000     -0.076550262      1.853725734     -0.000000000
       H    -0.5265751900     1.1515084100     0.0000000000      3.966326248     -5.213280194     -0.000000000
