       3
Lattice="15.0 0.0 0.0 0.0 15.0 0.0 0.0 0.0 15.0" Properties=species:S:1:pos:R:3:forces:R:3 energy=        3.8707635132 pbc="T T T"
       O     0.0022820100     0.0262400300     0.0000000000     18.206662680    -36.246812259     -0.000000000
       H     0.9914976800    -0.1361713000     0.0000000000     -2.666365695      1.501814718     -0.000000000
       H    -0.3064050800     0.6486709600     0.0000000000    -15.540296986     34.744997490     -0.000000000
