       3
Lattice="15.0 0.0 0.0 0.0 15.0 0.0 0.0 0.0 15.0" Properties=species:S:1:pos:R:3:forces:R:3 energy=        1.7840156941 pbc="T T T"
       O    -0.0229491000    -0.0062568800     0.0000000000      5.542793034    -10.513844291     -0.000000000
       H     1.0681794500     0.2176287800     0.0000000000     -3.103905490     -2.960523587     -0.000000000
       H     0.0173587900     0.8106190600     0.0000000000     -2.438887544     13.474367929     -0.000000000
