       3
Lattice="15.0 0.0 0.0 0.0 15.0 0.0 0.0 0.0 15.0" Properties=species:S:1:pos:R:3:forces:R:3 energy=        0.4422224545 pbc="T T T"
       O     0.0132424200     0.0170550100     0.0000000000     -1.153950519     -1.484925648     -0.000000000
       H     0.9565895500    -0.2151985000     0.0000000000     -0.842623563      1.844973694     -0.000000000
       H    -0.4454484700     0.8734716100     0.0000000000      1.996574030     -0.360048098     -0.000000000
