       3
Lattice="15.0 0.0 0.0 0.0 15.0 0.0 0.0 0.0 15.0" Properties=species:S:1:pos:R:3:forces:R:3 energy=       10.9453480840 pbc="T T T"
       O     0.0355280300     0.0049865400     0.0000000000    -87.565744275     29.001177570     -0.000000000
       H     0.5962839200    -0.1720328800     0.0000000000     83.813850394    -23.937941216     -0.000000000
       H    -0.4388302700     1.0218399000     0.0000000000      3.751893829     -5.063236354     -0.000000000
