       3
Lattice="15.0 0.0 0.0 0.0 15.0 0.0 0.0 0.0 15.0" Properties=species:S:1:pos:R:3:forces:R:3 energy=        0.7882107566 pbc="T T T"
       O    -0.0198392100    -0.0139033100     0.0000000000      5.673381379      2.846084399     -0.000000000
       H     1.1054341000     0.1744671200     0.0000000000     -4.366613621     -1.920188885     -0.000000000
       H    -0.0692531400     0.9751356900     0.0000000000     -1.306767707     -0.925895566     -0.000000000
