       3
Lattice="15.0 0.0 0.0 0.0 15.0 0.0 0.0 0.0 15.0" Properties=species:S:1:pos:R:3:forces:R:3 energy=        5.9428766681 pbc="T T T"
       O     0.0311261000     0.0051411300     0.0000000000    -51.797206229     16.280130778     -0.000000000
       H     0.6686509600    -0.1744653600     0.0000000000     48.135684816    -11.364670243     -0.000000000
       H    -0.4413355600     1.0218191200     0.0000000000      3.661521413     -4.915460535     -0.000000000
