       3
Lattice="15.0 0.0 0.0 0.0 15.0 0.0 0.0 0.0 15.0" Properties=species:S:1:pos:R:3:forces:R:3 energy=        1.0357146092 pbc="T T T"
       O     0.0195005200     0.0076408700     0.0000000000    -11.510664594      4.100056894     -0.000000000
       H     0.8492795700    -0.1793307600     0.0000000000      8.240557106     -0.164490053     -0.000000000
       H    -0.4374579600     0.9870125500     0.0000000000      3.270107488     -3.935566841     -0.000000000
