       3
Lattice="15.0 0.0 0.0 0.0 15.0 0.0 0.0 0.0 15.0" Properties=species:S:1:pos:R:3:forces:R:3 energy=        5.1415461948 pbc="T T T"
       O     0.0093313600    -0.0345793600     0.0000000000    -32.273492453     -4.277828347     -0.000000000
       H     0.6739172900     0.2152020200     0.0000000000     33.459872825      9.410458294     -0.000000000
       H    -0.1006929900     1.2625431700     0.0000000000     -1.186380424     -5.132629895     -0.000000000
