       3
Lattice="15.0 0.0 0.0 0.0 15.0 0.0 0.0 0.0 15.0" Properties=species:S:1:pos:R:3:forces:R:3 energy=        1.9611240829 pbc="T T T"
       O     0.0123273800     0.0217043400     0.0000000000     -0.667566836    -17.258630214     -0.000000000
       H     0.8473415500    -0.1337379400     0.0000000000      7.825266980     -0.374156982     -0.000000000
       H    -0.3216761700     0.7182217200     0.0000000000     -7.157700144     17.632787196     -0.000000000
