       3
Lattice="15.0 0.0 0.0 0.0 15.0 0.0 0.0 0.0 15.0" Properties=species:S:1:pos:R:3:forces:R:3 energy=        3.1591199913 pbc="T T T"
       O     0.0257203100    -0.0076519900     0.0000000000     -5.691118194      3.042717268     -0.000000000
       H     0.9237888700    -0.2656540800     0.0000000000      2.087984761      1.495215053     -0.000000000
       H    -0.6106818200     1.3160458300     0.0000000000      3.603133433     -4.537932322     -0.000000000
