       3
Lattice="15.0 0.0 0.0 0.0 15.0 0.0 0.0 0.0 15.0" Properties=species:S:1:pos:R:3:forces:R:3 energy=        1.0582062973 pbc="T T T"
       O    -0.0166543700     0.0018477800     0.0000000000      6.825129952     -5.097763868     -0.000000000
       H     1.1757284800     0.0310005700     0.0000000000     -5.720448787     -0.175795456     -0.000000000
       H    -0.1900970900     0.8686218400     0.0000000000     -1.104681114      5.273559376     -0.000000000
