       3
Lattice="15.0 0.0 0.0 0.0 15.0 0.0 0.0 0.0 15.0" Properties=species:S:1:pos:R:3:forces:R:3 energy=        2.4780417729 pbc="T T T"
       O    -0.0134695400     0.0175988700     0.0000000000     10.556304074    -15.802094186     -0.000000000
       H     1.2460228600    -0.1124659700     0.0000000000     -6.352705156      1.539739434     -0.000000000
       H    -0.3109410500     0.7621079800     0.0000000000     -4.203598919     14.262354804     -0.000000000
