       3
Lattice="15.0 0.0 0.0 0.0 15.0 0.0 0.0 0.0 15.0" Properties=species:S:1:pos:R:3:forces:R:3 energy=        2.6557573784 pbc="T T T"
       O    -0.0130291900    -0.0459084200     0.0000000000      3.323942351      7.171300103     -0.000000000
       H     1.0011831800     0.2723412900     0.0000000000     -2.687046990     -2.045364541     -0.000000000
       H    -0.0730791700     1.3852053700     0.0000000000     -0.636895361     -5.125935562     -0.000000000
