       3
Lattice="15.0 0.0 0.0 0.0 15.0 0.0 0.0 0.0 15.0" Properties=species:S:1:pos:R:3:forces:R:3 energy=        2.0291101335 pbc="T T T"
       O     0.0216953800     0.0046437700     0.0000000000    -22.779599714      6.385162777     -0.000000000
       H     0.7772862200    -0.1410318600     0.0000000000     19.859988106     -2.286393029     -0.000000000
       H    -0.4002975800     0.9962793100     0.0000000000      2.919611608     -4.098769748     -0.000000000
