       3
Lattice="15.0 0.0 0.0 0.0 15.0 0.0 0.0 0.0 15.0" Properties=species:S:1:pos:R:3:forces:R:3 energy=        4.1583125367 pbc="T T T"
       O     0.0247930600    -0.0088422600     0.0000000000    -32.960770661      8.548163931     -0.000000000
       H     0.7429212000    -0.1100282100     0.0000000000     29.862116703     -2.677154049     -0.000000000
       H    -0.4150940500     1.1793086700     0.0000000000      3.098653958     -5.871009882     -0.000000000
