       3
Lattice="15.0 0.0 0.0 0.0 15.0 0.0 0.0 0.0 15.0" Properties=species:S:1:pos:R:3:forces:R:3 energy=        1.2016838430 pbc="T T T"
       O    -0.0044768700    -0.0232429300     0.0000000000      1.201950723      6.308791824     -0.000000000
       H     0.9981589300     0.0978724100     0.0000000000     -1.827749301     -0.602966913     -0.000000000
       H    -0.2057912400     1.1999571300     0.0000000000      0.625798577     -5.705824911     -0.000000000
