       3
Lattice="15.0 0.0 0.0 0.0 15.0 0.0 0.0 0.0 15.0" Properties=species:S:1:pos:R:3:forces:R:3 energy=        6.3406322647 pbc="T T T"
       O    -0.0232250700     0.0050386100     0.0000000000      3.448647495    -48.823731990     -0.000000000
       H     1.0666499100     0.1866255600     0.0000000000     -2.929708849     -3.012339053     -0.000000000
       H     0.0232670600     0.6623546900     0.0000000000     -0.518938646     51.836071043     -0.000000000
