       3
Lattice="15.0 0.0 0.0 0.0 15.0 0.0 0.0 0.0 15.0" Properties=species:S:1:pos:R:3:forces:R:3 energy=        5.2411439411 pbc="T T T"
       O    -0.0131308500     0.0238613100     0.0000000000     20.766342044    -39.699346082     -0.000000000
       H     1.2089724600    -0.1076023300     0.0000000000     -6.429449485      1.559650889     -0.000000000
       H    -0.2792658800     0.6578545700     0.0000000000    -14.336892560     38.139695193     -0.000000000
