       3
Lattice="15.0 0.0 0.0 0.0 15.0 0.0 0.0 0.0 15.0" Properties=species:S:1:pos:R:3:forces:R:3 energy=        0.5031565901 pbc="T T T"
       O    -0.0119886900    -0.0154419000     0.0000000000      3.659310469      4.713581122     -0.000000000
       H     1.0332713100     0.1386015800     0.0000000000     -3.024372233     -1.428779773     -0.000000000
       H    -0.1216846100     1.0354197100     0.0000000000     -0.634938185     -3.284801400     -0.000000000
