       3
Lattice="15.0 0.0 0.0 0.0 15.0 0.0 0.0 0.0 15.0" Properties=species:S:1:pos:R:3:forces:R:3 energy=       17.3983862441 pbc="T T T"
       O     0.0408955100     0.0119009300     0.0000000000   -129.212099614     56.965334385     -0.000000000
       H     0.5229652900    -0.2030352100     0.0000000000    125.575233137    -53.003722977     -0.000000000
       H    -0.4506983800     0.9431055200     0.0000000000      3.636866476     -3.961611357     -0.000000000
