       3
Lattice="15.0 0.0 0.0 0.0 15.0 0.0 0.0 0.0 15.0" Properties=species:S:1:pos:R:3:forces:R:3 energy=        4.4895155813 pbc="T T T"
       O     0.0065723600    -0.0148308900     0.0000000000    -35.528434436     -6.819522528     -0.000000000
       H     0.6712319100     0.1890620100     0.0000000000     38.775112323      7.038422703     -0.000000000
       H    -0.0542213700     0.9752604000     0.0000000000     -3.246677888     -0.218900176     -0.000000000
