       3
Lattice="15.0 0.0 0.0 0.0 15.0 0.0 0.0 0.0 15.0" Properties=species:S:1:pos:R:3:forces:R:3 energy=        3.0708776162 pbc="T T T"
       O     0.0168798200    -0.0248616000     0.0000000000    -12.468259460      4.785237390     -0.000000000
       H     0.8536639200    -0.0480231000     0.0000000000     10.319916430      0.609999090     -0.000000000
       H    -0.4002460200     1.3715424300     0.0000000000      2.148343031     -5.395236531     -0.000000000
