       3
Lattice="15.0 0.0 0.0 0.0 15.0 0.0 0.0 0.0 15.0" Properties=species:S:1:pos:R:3:forces:R:3 energy=        9.2169822050 pbc="T T T"
       O     0.0093818700    -0.0228610300     0.0000000000    -59.078831958    -23.445384004     -0.000000000
       H     0.5637176900     0.2632277600     0.0000000000     63.711035776     24.094202347     -0.000000000
       H     0.0087059100     1.0285381100     0.0000000000     -4.632203818     -0.648818395     -0.000000000
