       3
Lattice="15.0 0.0 0.0 0.0 15.0 0.0 0.0 0.0 15.0" Properties=species:S:1:pos:R:3:forces:R:3 energy=        3.0155499350 pbc="T T T"
       O     0.0145222400     0.0187072400     0.0000000000    -12.474615693    -16.077031685     -0.000000000
       H     0.7753482000    -0.0954390400     0.0000000000     19.465278281     -2.235282765     -0.000000000
       H    -0.2845157900     0.7274884800     0.0000000000     -6.990662589     18.312314501     -0.000000000
