       3
Lattice="15.0 0.0 0.0 0.0 15.0 0.0 0.0 0.0 15.0" Properties=species:S:1:pos:R:3:forces:R:3 energy=        5.9265723730 pbc="T T T"
       O    -0.0364430600    -0.0003372000     0.0000000000      0.807804382    -36.993880111     -0.000000000
       H     1.2121313400     0.2534934300     0.0000000000     -3.952381041     -3.066903390     -0.000000000
       H     0.0875666400     0.6808050600     0.0000000000      3.144576659     40.060783501     -0.000000000
