       3
Lattice="15.0 0.0 0.0 0.0 15.0 0.0 0.0 0.0 15.0" Properties=species:S:1:pos:R:3:forces:R:3 energy=        2.5053824973 pbc="T T T"
       O    -0.0314403600     0.0002756200     0.0000000000      5.788696130     -2.859044411     -0.000000000
       H     1.4293020500     0.0212710900     0.0000000000     -5.623851933      0.146941186     -0.000000000
       H    -0.2090064700     0.9033036900     0.0000000000     -0.164844197      2.712103173     -0.000000000
