       3
Lattice="15.0 0.0 0.0 0.0 15.0 0.0 0.0 0.0 15.0" Properties=species:S:1:pos:R:3:forces:R:3 energy=        0.7382140798 pbc="T T T"
       O    -0.0050532200    -0.0123311500     0.0000000000     -4.330606950      0.113905323     -0.000000000
       H     0.8518605200     0.1841966000     0.0000000000      7.013374233     -1.311162650     -0.000000000
       H    -0.0503437700     0.9404538400     0.0000000000     -2.682767284      1.197257327     -0.000000000
