       3
Lattice="15.0 0.0 0.0 0.0 15.0 0.0 0.0 0.0 15.0" Properties=species:S:1:pos:R:3:forces:R:3 energy=        7.2051612664 pbc="T T T"
       O     0.0090431800    -0.0291234700     0.0000000000    -46.398888127    -14.334719514     -0.000000000
       H     0.6007680900     0.2583641200     0.0000000000     49.512257441     17.756798553     -0.000000000
       H    -0.0229692600     1.1327915200     0.0000000000     -3.113369262     -3.422079039     -0.000000000
