       3
Lattice="15.0 0.0 0.0 0.0 15.0 0.0 0.0 0.0 15.0" Properties=species:S:1:pos:R:3:forces:R:3 energy=       15.8690754932 pbc="T T T"
       O    -0.0068100200     0.0320051100     0.0000000000     57.308832387   -117.564480929     -0.000000000
       H     1.0630825400    -0.0978741700     0.0000000000     -5.040014396      1.449436077     -0.000000000
       H    -0.2336919400     0.5188777400     0.0000000000    -52.268817991    116.115044851     -0.000000000
