       3
Lattice="15.0 0.0 0.0 0.0 15.0 0.0 0.0 0.0 15.0" Properties=species:S:1:pos:R:3:forces:R:3 energy=        3.3765254631 pbc="T T T"
       O     0.0129298200     0.0108317000     0.0000000000    -24.453632248    -11.398465816     -0.000000000
       H     0.7402010100    -0.0237057700     0.0000000000     28.859701420     -1.749805500     -0.000000000
       H    -0.2240938100     0.7807454100     0.0000000000     -4.406069172     13.148271316     -0.000000000
