       3
Lattice="15.0 0.0 0.0 0.0 15.0 0.0 0.0 0.0 15.0" Properties=species:S:1:pos:R:3:forces:R:3 energy=        0.5067259457 pbc="T T T"
       O    -0.0154372800    -0.0140579100     0.0000000000      4.447445286      2.919274279     -0.000000000
       H     1.0330670600     0.1768996000     0.0000000000     -2.889265634     -2.039334324     -0.000000000
       H    -0.0667478400     0.9751564800     0.0000000000     -1.558179651     -0.879939904     -0.000000000
