       3
Lattice="15.0 0.0 0.0 0.0 15.0 0.0 0.0 0.0 15.0" Properties=species:S:1:pos:R:3:forces:R:3 energy=        0.6914704290 pbc="T T T"
       O    -0.0085401100    -0.0168258900     0.0000000000      2.822801301      5.604598835     -0.000000000
       H     1.0334755500     0.1003035700     0.0000000000     -3.054210928     -0.861353184     -0.000000000
       H    -0.1766213700     1.0956829400     0.0000000000      0.231409627     -4.743245650     -0.000000000
