       3
Lattice="15.0 0.0 0.0 0.0 15.0 0.0 0.0 0.0 15.0" Properties=species:S:1:pos:R:3:forces:R:3 energy=        3.4122166435 pbc="T T T"
       O    -0.0433907500    -0.0092875500     0.0000000000      4.651149206    -11.527232482     -0.000000000
       H     1.3219224500     0.2820637300     0.0000000000     -4.282839276     -2.479024180     -0.000000000
       H     0.0880412600     0.7942836500     0.0000000000     -0.368309930     14.006256662     -0.000000000
