       3
Lattice="15.0 0.0 0.0 0.0 15.0 0.0 0.0 0.0 15.0" Properties=species:S:1:pos:R:3:forces:R:3 energy=        2.6901131791 pbc="T T T"
       O     0.0144473000    -0.0046902800     0.0000000000    -29.928952150      3.157986562     -0.000000000
       H     0.7423084600     0.0048658400     0.0000000000     29.282033493      0.093492863     -0.000000000
       H    -0.2502837600     0.9985189700     0.0000000000      0.646918657     -3.251479425     -0.000000000
