       3
Lattice="15.0 0.0 0.0 0.0 15.0 0.0 0.0 0.0 15.0" Properties=species:S:1:pos:R:3:forces:R:3 energy=        2.9883069647 pbc="T T T"
       O    -0.0128304600     0.0242450300     0.0000000000      8.150791060    -10.560043334     -0.000000000
       H     1.3537413300    -0.2249297400     0.0000000000     -5.930530229      2.365543243     -0.000000000
       H    -0.4288050800     0.7690935000     0.0000000000     -2.220260882      8.194500142     -0.000000000
