       3
Lattice="15.0 0.0 0.0 0.0 15.0 0.0 0.0 0.0 15.0" Properties=species:S:1:pos:R:3:forces:R:3 energy=       36.1892987011 pbc="T T T"
       O    -0.0042642600     0.0411100500     0.0000000000    152.812499665   -239.488159590     -0.000000000
       H     1.0256584600    -0.1288769400     0.0000000000     -4.612357669      1.947423359     -0.000000000
       H    -0.2366718500     0.4053783600     0.0000000000   -148.200142048    237.540736283     -0.000000000
