       3
Lattice="15.0 0.0 0.0 0.0 15.0 0.0 0.0 0.0 15.0" Properties=species:S:1:pos:R:3:forces:R:3 energy=       14.5510333826 pbc="T T T"
       O     0.0014036100     0.0484081600     0.0000000000     82.489823841    -81.216769020     -0.000000000
       H     1.0971086900    -0.2772066900     0.0000000000     -6.332115135      3.240412929     -0.000000000
       H    -0.3980791600     0.4378829100     0.0000000000    -76.157708706     77.976356092     -0.000000000
