       3
Lattice="15.0 0.0 0.0 0.0 15.0 0.0 0.0 0.0 15.0" Properties=species:S:1:pos:R:3:forces:R:3 energy=        1.6853565392 pbc="T T T"
       O    -0.0072741700    -0.0093731900     0.0000000000      3.389705030      4.366396825     -0.000000000
       H     1.1772928200    -0.0504586600     0.0000000000     -5.602510172      0.851343104     -0.000000000
       H    -0.3405339700     1.1281667000     0.0000000000      2.212805142     -5.217739878     -0.000000000
