       3
Lattice="15.0 0.0 0.0 0.0 15.0 0.0 0.0 0.0 15.0" Properties=species:S:1:pos:R:3:forces:R:3 energy=        0.1318624472 pbc="T T T"
       O    -0.0066212100    -0.0085275000     0.0000000000      1.229313907      1.583581494     -0.000000000
       H     0.9599526700     0.1075992500     0.0000000000     -0.151365954     -1.151373604     -0.000000000
       H    -0.1335527200     0.9566853300     0.0000000000     -1.077947953     -0.432207942     -0.000000000
