       3
Lattice="15.0 0.0 0.0 0.0 15.0 0.0 0.0 0.0 15.0" Properties=species:S:1:pos:R:3:forces:R:3 energy=        2.9062469159 pbc="T T T"
       O     0.0213061700    -0.0133370000     0.0000000000     -5.972747146      3.695504368     -0.000000000
       H     0.9245362300    -0.1939212500     0.0000000000      2.773063955      1.181944857     -0.000000000
       H    -0.5413716500     1.3345377700     0.0000000000      3.199683190     -4.877449226     -0.000000000
