       3
Lattice="15.0 0.0 0.0 0.0 15.0 0.0 0.0 0.0 15.0" Properties=species:S:1:pos:R:3:forces:R:3 energy=        0.6459426074 pbc="T T T"
       O     0.0046778900    -0.0114500800     0.0000000000     -6.224431679      4.707151664     -0.000000000
       H     0.8879941300     0.0334357000     0.0000000000      5.317065650      0.062381368     -0.000000000
       H    -0.2409209500     1.0772325700     0.0000000000      0.907365977     -4.769533033     -0.000000000
