       3
Lattice="15.0 0.0 0.0 0.0 15.0 0.0 0.0 0.0 15.0" Properties=species:S:1:pos:R:3:forces:R:3 energy=        3.0278617021 pbc="T T T"
       O     0.0056939600     0.0073372400     0.0000000000    -14.375851013    -18.525016927     -0.000000000
       H     0.7768429200     0.0480266200     0.0000000000     19.945899142     -0.647525181     -0.000000000
       H    -0.1458954500     0.7644723500     0.0000000000     -5.570048128     19.172542159     -0.000000000
