       3
Lattice="15.0 0.0 0.0 0.0 15.0 0.0 0.0 0.0 15.0" Properties=species:S:1:pos:R:3:forces:R:3 energy=        3.3092505331 pbc="T T T"
       O    -0.0323676100    -0.0009146400     0.0000000000      6.605021821    -19.311879818     -0.000000000
       H     1.2484343800     0.1768969600     0.0000000000     -5.180778247     -1.886290673     -0.000000000
       H    -0.0134187000     0.7665665300     0.0000000000     -1.424243625     21.198170440     -0.000000000
