       3
Lattice="15.0 0.0 0.0 0.0 15.0 0.0 0.0 0.0 15.0" Properties=species:S:1:pos:R:3:forces:R:3 energy=        0.5862408836 pbc="T T T"
       O    -0.0116622200    -0.0150190600     0.0000000000      1.251022667      1.610449278     -0.000000000
       H     0.9246012400     0.2176305400     0.0000000000      1.435574585     -2.405918427     -0.000000000
       H    -0.0181939800     0.9496790200     0.0000000000     -2.686597252      0.795469200     -0.000000000
