       3
Lattice="15.0 0.0 0.0 0.0 15.0 0.0 0.0 0.0 15.0" Properties=species:S:1:pos:R:3:forces:R:3 energy=        3.4664509549 pbc="T T T"
       O    -0.0140841900     0.0226319200     0.0000000000     13.528682663    -21.509914326     -0.000000000
       H     1.2815437300    -0.1483328300     0.0000000000     -6.388370641      1.894611127     -0.000000000
       H    -0.3367079400     0.7180970200     0.0000000000     -7.140312022     19.615303250     -0.000000000
