       3
Lattice="15.0 0.0 0.0 0.0 15.0 0.0 0.0 0.0 15.0" Properties=species:S:1:pos:R:3:forces:R:3 energy=        4.0297412195 pbc="T T T"
       O     0.0091303400     0.0001136500     0.0000000000    -33.321856508     -9.814771553     -0.000000000
       H     0.7054275000     0.0838939200     0.0000000000     36.854976146      1.755307664     -0.000000000
       H    -0.1290167500     0.8432483000     0.0000000000     -3.533119638      8.059463889     -0.000000000
