       3
Lattice="15.0 0.0 0.0 0.0 15.0 0.0 0.0 0.0 15.0" Properties=species:S:1:pos:R:3:forces:R:3 energy=        0.1311676997 pbc="T T T"
       O     0.0012415200    -0.0042264900     0.0000000000     -0.980861612      2.869495899     -0.000000000
       H     0.9594095600    -0.0024316000     0.0000000000      0.081029691      0.130687538     -0.000000000
       H    -0.2577996500     0.9984566200     0.0000000000      0.899831870     -3.000183437     -0.000000000
