       3
Lattice="15.0 0.0 0.0 0.0 15.0 0.0 0.0 0.0 15.0" Properties=species:S:1:pos:R:3:forces:R:3 energy=        0.2634899105 pbc="T T T"
       O     0.0022192800     0.0086821000     0.0000000000      2.262684619     -1.567205205     -0.000000000
       H     1.0300776200    -0.1100317300     0.0000000000     -3.290695709      1.346904960     -0.000000000
       H    -0.3439885200     0.9011887300     0.0000000000      1.028011090      0.220300245     -0.000000000
