       3
Lattice="15.0 0.0 0.0 0.0 15.0 0.0 0.0 0.0 15.0" Properties=species:S:1:pos:R:3:forces:R:3 energy=       15.7937670545 pbc="T T T"
       O     0.0292455100     0.0027214700     0.0000000000   -130.030183066     16.742626998     -0.000000000
       H     0.5603545600    -0.0595699900     0.0000000000    128.757376048    -14.343876708     -0.000000000
       H    -0.3031898500     0.9453244000     0.0000000000      1.272807017     -2.398750290     -0.000000000
