       3
Lattice="15.0 0.0 0.0 0.0 15.0 0.0 0.0 0.0 15.0" Properties=species:S:1:pos:R:3:forces:R:3 energy=        2.2993021785 pbc="T T T"
       O     0.0274137600     0.0236602100     0.0000000000    -20.959587946      3.294678092     -0.000000000
       H     0.7385368500    -0.2413358700     0.0000000000     20.677470690     -5.745867290     -0.000000000
       H    -0.4523059900     0.7947787900     0.0000000000      0.282117256      2.451189250     -0.000000000
