       3
Lattice="15.0 0.0 0.0 0.0 15.0 0.0 0.0 0.0 15.0" Properties=species:S:1:pos:R:3:forces:R:3 energy=        1.6422711953 pbc="T T T"
       O    -0.0089032200    -0.0347675300     0.0000000000      0.697580623      6.932877583     -0.000000000
       H     0.9272866200     0.2437705500     0.0000000000      0.378789083     -1.663323628     -0.000000000
       H    -0.0646656100     1.2369617900     0.0000000000     -1.076369758     -5.269553956     -0.000000000
