       3
Lattice="15.0 0.0 0.0 0.0 15.0 0.0 0.0 0.0 15.0" Properties=species:S:1:pos:R:3:forces:R:3 energy=       13.3895307511 pbc="T T T"
       O    -0.0206915200     0.0083039500     0.0000000000    -13.367199054    -95.471537370     -0.000000000
       H     0.9576061600     0.2297881000     0.0000000000      1.777261758     -4.500819253     -0.000000000
       H     0.0921026000     0.5673680300     0.0000000000     11.589937295     99.972356623     -0.000000000
