       3
Lattice="15.0 0.0 0.0 0.0 15.0 0.0 0.0 0.0 15.0" Properties=species:S:1:pos:R:3:forces:R:3 energy=        1.9542965720 pbc="T T T"
       O    -0.0047894700    -0.0294662400     0.0000000000     -7.637855840      3.285778317     -0.000000000
       H     0.7817703900     0.2893651300     0.0000000000     10.647117795      0.053367745     -0.000000000
       H     0.0155634300     1.1072309300     0.0000000000     -3.009261955     -3.339146011     -0.000000000
