       3
Lattice="15.0 0.0 0.0 0.0 15.0 0.0 0.0 0.0 15.0" Properties=species:S:1:pos:R:3:forces:R:3 energy=        2.2635486132 pbc="T T T"
       O     0.0008278900    -0.0338864600     0.0000000000     -0.742879574      5.685772816     -0.000000000
       H     0.9634202300     0.0930096400     0.0000000000     -0.171032383     -0.156906272     -0.000000000
       H    -0.2552427800     1.3737405200     0.0000000000      0.913911957     -5.528866544     -0.000000000
