       3
Lattice="15.0 0.0 0.0 0.0 15.0 0.0 0.0 0.0 15.0" Properties=species:S:1:pos:R:3:forces:R:3 energy=        2.4435002763 pbc="T T T"
       O     0.0003248100     0.0120629100     0.0000000000      1.847301932      0.883909946     -0.000000000
       H     1.2468398400    -0.2656580400     0.0000000000     -5.708450317      2.780696124     -0.000000000
       H    -0.5306881000     1.0031609000     0.0000000000      3.861148385     -3.664606070     -0.000000000
