       3
Lattice="15.0 0.0 0.0 0.0 15.0 0.0 0.0 0.0 15.0" Properties=species:S:1:pos:R:3:forces:R:3 energy=        8.1147803265 pbc="T T T"
       O     0.0236020600     0.0071025600     0.0000000000    -71.955674459      5.956021700     -0.000000000
       H     0.6321436700    -0.0595708700     0.0000000000     72.190190288     -7.473532137     -0.000000000
       H    -0.2854134700     0.8757944100     0.0000000000     -0.234515829      1.517510436     -0.000000000
