       3
Lattice="15.0 0.0 0.0 0.0 15.0 0.0 0.0 0.0 15.0" Properties=species:S:1:pos:R:3:forces:R:3 energy=        0.9361941813 pbc="T T T"
       O    -0.0019066800    -0.0024587900     0.0000000000      2.463424107      3.174014621     -0.000000000
       H     1.1039741800    -0.0814610000     0.0000000000     -4.784032005      1.171742767     -0.000000000
       H    -0.3524020800     1.0494323100     0.0000000000      2.320607846     -4.345757388     -0.000000000
