       3
Lattice="15.0 0.0 0.0 0.0 15.0 0.0 0.0 0.0 15.0" Properties=species:S:1:pos:R:3:forces:R:3 energy=       13.3495434017 pbc="T T T"
       O    -0.0250934500     0.0084585500     0.0000000000    -11.956442362    -95.377992159     -0.000000000
       H     1.0299731900     0.2273556200     0.0000000000     -0.985406965     -4.170272624     -0.000000000
       H     0.0895973100     0.5673472500     0.0000000000     12.941849275     99.548264783     -0.000000000
