       3
Lattice="15.0 0.0 0.0 0.0 15.0 0.0 0.0 0.0 15.0" Properties=species:S:1:pos:R:3:forces:R:3 energy=        1.0434323243 pbc="T T T"
       O     0.0031221100    -0.0018068300     0.0000000000      1.138847132      3.298819627     -0.000000000
       H     1.0677059500    -0.1173269700     0.0000000000     -3.987491579      1.510937151     -0.000000000
       H    -0.3959453600     1.0749513400     0.0000000000      2.848644448     -4.809756830     -0.000000000
