       3
Lattice="15.0 0.0 0.0 0.0 15.0 0.0 0.0 0.0 15.0" Properties=species:S:1:pos:R:3:forces:R:3 energy=       16.2185391084 pbc="T T T"
       O    -0.0112241600     0.0263201100     0.0000000000     42.078103567   -125.824384310     -0.000000000
       H     1.0638299100    -0.0261413300     0.0000000000     -4.706257332      0.341140762     -0.000000000
       H    -0.1643817700     0.5373696800     0.0000000000    -37.371846236    125.483243548     -0.000000000
