       3
Lattice="15.0 0.0 0.0 0.0 15.0 0.0 0.0 0.0 15.0" Properties=species:S:1:pos:R:3:forces:R:3 energy=       18.9482854181 pbc="T T T"
       O     0.0386884400     0.0090584300     0.0000000000   -144.382329731     52.392904116     -0.000000000
       H     0.5233389700    -0.1671687900     0.0000000000    141.093649768    -48.528773199     -0.000000000
       H    -0.4160432900     0.9523514800     0.0000000000      3.288679963     -3.864130917     -0.000000000
