       3
Lattice="15.0 0.0 0.0 0.0 15.0 0.0 0.0 0.0 15.0" Properties=species:S:1:pos:R:3:forces:R:3 energy=       11.4241841060 pbc="T T T"
       O    -0.0039883000     0.0298145600     0.0000000000     42.337395484    -88.886353574     -0.000000000
       H     1.0271879900    -0.0978737300     0.0000000000     -4.015642910      1.296531883     -0.000000000
       H    -0.2425801300     0.5536427300     0.0000000000    -38.321752523     87.589821691     -0.000000000
