       3
Lattice="15.0 0.0 0.0 0.0 15.0 0.0 0.0 0.0 15.0" Properties=species:S:1:pos:R:3:forces:R:3 energy=        2.3397394954 pbc="T T T"
       O     0.0163156800    -0.0081102200     0.0000000000    -23.467752097      5.586313192     -0.000000000
       H     0.7789851900    -0.0358642100     0.0000000000     21.488627947     -0.251888679     -0.000000000
       H    -0.3166140100     1.0935264100     0.0000000000      1.979124151     -5.334424513     -0.000000000
