       3
Lattice="15.0 0.0 0.0 0.0 15.0 0.0 0.0 0.0 15.0" Properties=species:S:1:pos:R:3:forces:R:3 energy=        1.1090039794 pbc="T T T"
       O     0.0021443400    -0.0147154300     0.0000000000     -0.334473888      5.257731606     -0.000000000
       H     0.9970378900    -0.0097268400     0.0000000000     -1.515744396      0.419833422     -0.000000000
       H    -0.3097564900     1.1722192300     0.0000000000      1.850218285     -5.677564977     -0.000000000
