       3
Lattice="15.0 0.0 0.0 0.0 15.0 0.0 0.0 0.0 15.0" Properties=species:S:1:pos:R:3:forces:R:3 energy=        1.5815665279 pbc="T T T"
       O     0.0071853500    -0.0082238700     0.0000000000     -0.209558942      4.039856902     -0.000000000
       H     1.0323893200    -0.1197581300     0.0000000000     -2.788397765      1.457622422     -0.000000000
       H    -0.4251152300     1.1792255300     0.0000000000      2.997956706     -5.497479273     -0.000000000
