       3
Lattice="15.0 0.0 0.0 0.0 15.0 0.0 0.0 0.0 15.0" Properties=species:S:1:pos:R:3:forces:R:3 energy=        5.3109545423 pbc="T T T"
       O    -0.0071975600     0.0023842700     0.0000000000     -7.517672702    -37.257525319     -0.000000000
       H     0.8136542700     0.1939234500     0.0000000000     12.007478887     -2.404154340     -0.000000000
       H     0.0218947500     0.6971820300     0.0000000000     -4.489806184     39.661679660     -0.000000000
