       3
Lattice="15.0 0.0 0.0 0.0 15.0 0.0 0.0 0.0 15.0" Properties=species:S:1:pos:R:3:forces:R:3 energy=        0.5398677838 pbc="T T T"
       O     0.0120009100     0.0212815000     0.0000000000      1.284310550     -5.662815888     -0.000000000
       H     0.9560116200    -0.2127669000     0.0000000000     -1.050237156      1.837707394     -0.000000000
       H    -0.4251668000     0.8039624100     0.0000000000     -0.234073394      3.825108495     -0.000000000
