       3
Lattice="15.0 0.0 0.0 0.0 15.0 0.0 0.0 0.0 15.0" Properties=species:S:1:pos:R:3:forces:R:3 energy=        2.5931961053 pbc="T T T"
       O    -0.0402686500    -0.0110943800     0.0000000000      5.755583494      0.117686492     -0.000000000
       H     1.4307967700     0.1647367500     0.0000000000     -5.124406218     -1.002586159     -0.000000000
       H    -0.0703861300     0.9402875600     0.0000000000     -0.631177276      0.884899718     -0.000000000
