       3
Lattice="15.0 0.0 0.0 0.0 15.0 0.0 0.0 0.0 15.0" Properties=species:S:1:pos:R:3:forces:R:3 energy=        3.4812124815 pbc="T T T"
       O     0.0039638700    -0.0414937600     0.0000000000    -14.970582679      1.343737102     -0.000000000
       H     0.7472359300     0.2462043500     0.0000000000     15.973646806      3.688602547     -0.000000000
       H    -0.0888248800     1.3412775500     0.0000000000     -1.003064127     -5.032339649     -0.000000000
