       3
Lattice="15.0 0.0 0.0 0.0 15.0 0.0 0.0 0.0 15.0" Properties=species:S:1:pos:R:3:forces:R:3 energy=        1.7062706037 pbc="T T T"
       O     0.0122019300    -0.0134115100     0.0000000000     -5.561029723      4.926598251     -0.000000000
       H     0.9245014200    -0.0814588000     0.0000000000      2.905805755      0.810311106     -0.000000000
       H    -0.3968430400     1.2232572700     0.0000000000      2.655223917     -5.736909357     -0.000000000
