       3
Lattice="15.0 0.0 0.0 0.0 15.0 0.0 0.0 0.0 15.0" Properties=species:S:1:pos:R:3:forces:R:3 energy=        4.2714793059 pbc="T T T"
       O    -0.0109970500    -0.0083337700     0.0000000000     -8.867649052    -19.172422757     -0.000000000
       H     0.7788807600     0.3015231400     0.0000000000     14.104554610     -3.180378516     -0.000000000
       H     0.1169718200     0.7596849300     0.0000000000     -5.236905558     22.352801273     -0.000000000
