       3
Lattice="15.0 0.0 0.0 0.0 15.0 0.0 0.0 0.0 15.0" Properties=species:S:1:pos:R:3:forces:R:3 energy=        9.7779330632 pbc="T T T"
       O     0.0169059100    -0.0248224600     0.0000000000    -72.356989605    -13.275167658     -0.000000000
       H     0.6002249800     0.1483332700     0.0000000000     73.203162166     18.515716060     -0.000000000
       H    -0.1472161900     1.1745628200     0.0000000000     -0.846172561     -5.240548402     -0.000000000
