       3
Lattice="15.0 0.0 0.0 0.0 15.0 0.0 0.0 0.0 15.0" Properties=species:S:1:pos:R:3:forces:R:3 energy=        2.2274759727 pbc="T T T"
       O     0.0065829100     0.0026487700     0.0000000000      1.189549567      2.290660754     -0.000000000
       H     1.1395298600    -0.2297903000     0.0000000000     -5.058737075      2.571204288     -0.000000000
       H    -0.5226975900     1.1167018500     0.0000000000      3.869187508     -4.861865042     -0.000000000
