       3
Lattice="15.0 0.0 0.0 0.0 15.0 0.0 0.0 0.0 15.0" Properties=species:S:1:pos:R:3:forces:R:3 energy=       10.8831351493 pbc="T T T"
       O    -0.0084146500     0.0182899600     0.0000000000     17.048594229    -90.145131977     -0.000000000
       H     0.9563156800     0.0480244200     0.0000000000     -0.162355574     -1.212648163     -0.000000000
       H    -0.1014544900     0.5906473900     0.0000000000    -16.886238656     91.357780140     -0.000000000
