       3
Lattice="15.0 0.0 0.0 0.0 15.0 0.0 0.0 0.0 15.0" Properties=species:S:1:pos:R:3:forces:R:3 energy=        7.1025020432 pbc="T T T"
       O     0.0125667100    -0.0071099400     0.0000000000    -58.781455558    -10.450191152     -0.000000000
       H     0.6340120700     0.1197612100     0.0000000000     61.611750702      8.698274055     -0.000000000
       H    -0.1121380500     0.9220242600     0.0000000000     -2.830295144      1.751917148     -0.000000000
