       3
Lattice="15.0 0.0 0.0 0.0 15.0 0.0 0.0 0.0 15.0" Properties=species:S:1:pos:R:3:forces:R:3 energy=       14.3871424048 pbc="T T T"
       O    -0.0023958800     0.0376901100     0.0000000000     65.383629366    -99.373067623     -0.000000000
       H     1.0623351800    -0.1696070000     0.0000000000     -5.303073392      2.323572175     -0.000000000
       H    -0.3030021000     0.5003858000     0.0000000000    -60.080555974     97.049495447     -0.000000000
