       3
Lattice="15.0 0.0 0.0 0.0 15.0 0.0 0.0 0.0 15.0" Properties=species:S:1:pos:R:3:forces:R:3 energy=        3.3899676102 pbc="T T T"
       O    -0.0219835500     0.0008121100     0.0000000000      5.479147042    -26.407333782     -0.000000000
       H     1.0672278400     0.1841939600     0.0000000000     -3.165719930     -2.754197088     -0.000000000
       H     0.0029853800     0.7318638900     0.0000000000     -2.313427112     29.161530870     -0.000000000
