       3
Lattice="15.0 0.0 0.0 0.0 15.0 0.0 0.0 0.0 15.0" Properties=species:S:1:pos:R:3:forces:R:3 energy=        0.6265646692 pbc="T T T"
       O     0.0166788000     0.0098314200     0.0000000000     -7.438040303      2.392632245     -0.000000000
       H     0.8851741200    -0.1793312000     0.0000000000      4.543651486      0.611164520     -0.000000000
       H    -0.4285697700     0.9522475600     0.0000000000      2.894388817     -3.003796713     -0.000000000
