       3
Lattice="15.0 0.0 0.0 0.0 15.0 0.0 0.0 0.0 15.0" Properties=species:S:1:pos:R:3:forces:R:3 energy=       21.9452830546 pbc="T T T"
       O    -0.0235010300     0.0163340900     0.0000000000     -8.942944924   -164.263598147     -0.000000000
       H     1.0651203800     0.1556223500     0.0000000000     -2.919920346     -3.045242556     -0.000000000
       H     0.0291753300     0.5140903200     0.0000000000     11.862865218    167.308840703     -0.000000000
