       3
Lattice="15.0 0.0 0.0 0.0 15.0 0.0 0.0 0.0 15.0" Properties=species:S:1:pos:R:3:forces:R:3 energy=        0.5482898901 pbc="T T T"
       O    -0.0132424200    -0.0170550100     0.0000000000      2.631542606      3.389033972     -0.000000000
       H     0.9610737100     0.2151985000     0.0000000000     -0.410955862     -2.397095219     -0.000000000
       H    -0.0295874600     0.9844232300     0.0000000000     -2.220586744     -0.991938753     -0.000000000
