       3
Lattice="15.0 0.0 0.0 0.0 15.0 0.0 0.0 0.0 15.0" Properties=species:S:1:pos:R:3:forces:R:3 energy=        8.5781992915 pbc="T T T"
       O    -0.0222839400     0.0004284000     0.0000000000    -10.592429428    -53.370839760     -0.000000000
       H     0.9224589700     0.3015213700     0.0000000000      4.372903571     -5.397470872     -0.000000000
       H     0.1525245800     0.6206249600     0.0000000000      6.219525806     58.768310632     -0.000000000
