       3
Lattice="15.0 0.0 0.0 0.0 15.0 0.0 0.0 0.0 15.0" Properties=species:S:1:pos:R:3:forces:R:3 energy=        2.3886767758 pbc="T T T"
       O    -0.0096944700     0.0166377200     0.0000000000     11.953824823    -21.595358655     -0.000000000
       H     1.1375570300    -0.0717350300     0.0000000000     -5.743165471      1.066398912     -0.000000000
       H    -0.2623871800     0.7366305200     0.0000000000     -6.210659352     20.528959742     -0.000000000
