       3
Lattice="15.0 0.0 0.0 0.0 15.0 0.0 0.0 0.0 15.0" Properties=species:S:1:pos:R:3:forces:R:3 energy=       29.2261348728 pbc="T T T"
       O     0.0304748100    -0.0073446200     0.0000000000   -228.643037242     -4.190015363     -0.000000000
       H     0.4893128200     0.0121637300     0.0000000000    227.820517659      8.748712541     -0.000000000
       H    -0.2516560700     1.0333463200     0.0000000000      0.822519584     -4.558697178     -0.000000000
