       3
Lattice="15.0 0.0 0.0 0.0 15.0 0.0 0.0 0.0 15.0" Properties=species:S:1:pos:R:3:forces:R:3 energy=        1.7235722124 pbc="T T T"
       O     0.0204538600     0.0088702700     0.0000000000    -21.600858607      4.419995198     -0.000000000
       H     0.7767082900    -0.1386002600     0.0000000000     19.534148552     -2.380647762     -0.000000000
       H    -0.3800159100     0.9267701100     0.0000000000      2.066710004     -2.039347385     -0.000000000
