       3
Lattice="15.0 0.0 0.0 0.0 15.0 0.0 0.0 0.0 15.0" Properties=species:S:1:pos:R:3:forces:R:3 energy=        1.8125924195 pbc="T T T"
       O    -0.0054302100    -0.0244723200     0.0000000000      2.696595660      6.011540688     -0.000000000
       H     1.0707302000     0.0571419100     0.0000000000     -3.929454915     -0.214903548     -0.000000000
       H    -0.2632332900     1.2601995800     0.0000000000      1.232859306     -5.796637192     -0.000000000
