       3
Lattice="15.0 0.0 0.0 0.0 15.0 0.0 0.0 0.0 15.0" Properties=species:S:1:pos:R:3:forces:R:3 energy=        2.8506950537 pbc="T T T"
       O    -0.0222856100     0.0120684700     0.0000000000      9.681644396    -15.645410212     -0.000000000
       H     1.3191372500    -0.0431656200     0.0000000000     -6.238772785      0.748207211     -0.000000000
       H    -0.2441361700     0.7805791300     0.0000000000     -3.442871612     14.897203000     -0.000000000
