       3
Lattice="15.0 0.0 0.0 0.0 15.0 0.0 0.0 0.0 15.0" Properties=species:S:1:pos:R:3:forces:R:3 energy=        2.0621293300 pbc="T T T"
       O    -0.0063069400    -0.0139442600     0.0000000000     -8.736382090     -4.756760558     -0.000000000
       H     0.7796629300     0.2607935200     0.0000000000     13.419177374     -1.046606962     -0.000000000
       H     0.0417533800     0.8894573600     0.0000000000     -4.682795284      5.803367520     -0.000000000
