       3
Lattice="15.0 0.0 0.0 0.0 15.0 0.0 0.0 0.0 15.0" Properties=species:S:1:pos:R:3:forces:R:3 energy=        2.1837048447 pbc="T T T"
       O    -0.0172568100     0.0127204300     0.0000000000      8.493598257    -10.939519468     -0.000000000
       H     1.2828690200    -0.0790316000     0.0000000000     -6.295191968      1.140826831     -0.000000000
       H    -0.2876794500     0.8060981500     0.0000000000     -2.198406289      9.798692689     -0.000000000
