       3
Lattice="15.0 0.0 0.0 0.0 15.0 0.0 0.0 0.0 15.0" Properties=species:S:1:pos:R:3:forces:R:3 energy=        6.1428782871 pbc="T T T"
       O     0.0169181200    -0.0189828700     0.0000000000    -50.461255305     -0.279211702     -0.000000000
       H     0.6718446500     0.0741679600     0.0000000000     49.995406416      5.915951913     -0.000000000
       H    -0.2190316500     1.1560500900     0.0000000000      0.465848889     -5.636740211     -0.000000000
