       3
Lattice="15.0 0.0 0.0 0.0 15.0 0.0 0.0 0.0 15.0" Properties=species:S:1:pos:R:3:forces:R:3 energy=        2.9804949486 pbc="T T T"
       O     0.0216326500    -0.0129141500     0.0000000000    -18.108738519      6.191311123     -0.000000000
       H     0.8158661500    -0.1148922900     0.0000000000     15.108871636     -0.479204233     -0.000000000
       H    -0.4378810200     1.2487970800     0.0000000000      2.999866883     -5.712106890     -0.000000000
