       3
Lattice="15.0 0.0 0.0 0.0 15.0 0.0 0.0 0.0 15.0" Properties=species:S:1:pos:R:3:forces:R:3 energy=        1.7800207279 pbc="T T T"
       O    -0.0189241700    -0.0185526500     0.0000000000      5.039118829      5.785132939     -0.000000000
       H     1.2146820900     0.0930065600     0.0000000000     -5.687429533     -0.637074978     -0.000000000
       H    -0.1930254500     1.1303855800     0.0000000000      0.648310704     -5.148058012     -0.000000000
