       3
Lattice="15.0 0.0 0.0 0.0 15.0 0.0 0.0 0.0 15.0" Properties=species:S:1:pos:R:3:forces:R:3 energy=        7.3444110906 pbc="T T T"
       O     0.0291949900    -0.0089968500     0.0000000000    -57.960023911     12.685214595     -0.000000000
       H     0.6705541700    -0.1075957300     0.0000000000     54.816988578     -6.715700665     -0.000000000
       H    -0.4125887500     1.1793294500     0.0000000000      3.143035333     -5.969513930     -0.000000000
