       3
Lattice="15.0 0.0 0.0 0.0 15.0 0.0 0.0 0.0 15.0" Properties=species:S:1:pos:R:3:forces:R:3 energy=        2.2765870386 pbc="T T T"
       O    -0.0097327800     0.0107589900     0.0000000000      3.242364294      0.043379159     -0.000000000
       H     1.3193763100    -0.1939260900     0.0000000000     -5.899176691      2.092867906     -0.000000000
       H    -0.4436015400     0.9521228600     0.0000000000      2.656812396     -2.136247064     -0.000000000
