       3
Lattice="15.0 0.0 0.0 0.0 15.0 0.0 0.0 0.0 15.0" Properties=species:S:1:pos:R:3:forces:R:3 energy=        2.3019793925 pbc="T T T"
       O    -0.0147615700     0.0101070400     0.0000000000      4.018224864     -0.903561719     -0.000000000
       H     1.3556445400    -0.1580601100     0.0000000000     -5.890912030      1.740106009     -0.000000000
       H    -0.4000582700     0.9266038300     0.0000000000      1.872687166     -0.836544290     -0.000000000
