       3
Lattice="15.0 0.0 0.0 0.0 15.0 0.0 0.0 0.0 15.0" Properties=species:S:1:pos:R:3:forces:R:3 energy=        2.5017987551 pbc="T T T"
       O    -0.0282799500     0.0043475200     0.0000000000      7.511729697     -9.392390886     -0.000000000
       H     1.3563570900     0.0261351700     0.0000000000     -5.963889691      0.045124116     -0.000000000
       H    -0.1862194900     0.8338152700     0.0000000000     -1.547840006      9.347266770     -0.000000000
