       3
Lattice="15.0 0.0 0.0 0.0 15.0 0.0 0.0 0.0 15.0" Properties=species:S:1:pos:R:3:forces:R:3 energy=        1.9564022598 pbc="T T T"
       O    -0.0153884300     0.0093004900     0.0000000000      5.077133481     -2.290430743     -0.000000000
       H     1.3195457400    -0.1197616600     0.0000000000     -6.101444906      1.479807762     -0.000000000
       H    -0.3540097000     0.9011055900     0.0000000000      1.024311425      0.810622981     -0.000000000
