       3
Lattice="15.0 0.0 0.0 0.0 15.0 0.0 0.0 0.0 15.0" Properties=species:S:1:pos:R:3:forces:R:3 energy=        4.0234141587 pbc="T T T"
       O     0.0277524500     0.0299226500     0.0000000000    -20.976595904     -3.280287261     -0.000000000
       H     0.7014864400    -0.2364722300     0.0000000000     27.501679108     -9.059630948     -0.000000000
       H    -0.4206308300     0.6905253900     0.0000000000     -6.525083203     12.339918260     -0.000000000
