       3
Lattice="15.0 0.0 0.0 0.0 15.0 0.0 0.0 0.0 15.0" Properties=species:S:1:pos:R:3:forces:R:3 energy=        2.5658216578 pbc="T T T"
       O    -0.0015174800     0.0155219800     0.0000000000      8.796912983    -28.232682545     -0.000000000
       H     0.9567241700    -0.0285716100     0.0000000000     -0.338893925      0.046762115     -0.000000000
       H    -0.2113280200     0.7111738500     0.0000000000     -8.458019109     28.185920379     -0.000000000
