       3
Lattice="15.0 0.0 0.0 0.0 15.0 0.0 0.0 0.0 15.0" Properties=species:S:1:pos:R:3:forces:R:3 energy=        3.5081892264 pbc="T T T"
       O    -0.0096700500     0.0283169200     0.0000000000     13.726290186    -19.480471503     -0.000000000
       H     1.2807963700    -0.2200656600     0.0000000000     -6.313226979      2.556796385     -0.000000000
       H    -0.4060181100     0.6996050800     0.0000000000     -7.413063207     16.923675169     -0.000000000
