       3
Lattice="15.0 0.0 0.0 0.0 15.0 0.0 0.0 0.0 15.0" Properties=species:S:1:pos:R:3:forces:R:3 energy=        1.9751462516 pbc="T T T"
       O    -0.0062964000     0.0035354000     0.0000000000      2.961547915      2.067263460     -0.000000000
       H     1.2479608800    -0.1580587900     0.0000000000     -5.935890519      1.878446594     -0.000000000
       H    -0.4267228400     1.0308988100     0.0000000000      2.974342604     -3.945710105     -0.000000000
