       3
Lattice="15.0 0.0 0.0 0.0 15.0 0.0 0.0 0.0 15.0" Properties=species:S:1:pos:R:3:forces:R:3 energy=        3.1413022043 pbc="T T T"
       O     0.0103091200    -0.0216707700     0.0000000000    -25.432975418      2.427464641     -0.000000000
       H     0.7445853600     0.1076018900     0.0000000000     25.368227502      3.089315810     -0.000000000
       H    -0.1868818600     1.1652752800     0.0000000000      0.064747916     -5.516780451     -0.000000000
