       3
Lattice="15.0 0.0 0.0 0.0 15.0 0.0 0.0 0.0 15.0" Properties=species:S:1:pos:R:3:forces:R:3 energy=        1.3464351292 pbc="T T T"
       O    -0.0113374100    -0.0029561500     0.0000000000      4.173134828      2.754450496     -0.000000000
       H     1.2126094500    -0.0480275000     0.0000000000     -5.931053963      0.817618442     -0.000000000
       H    -0.3113641000     1.0238925100     0.0000000000      1.757919134     -3.572068938     -0.000000000
