       3
Lattice="15.0 0.0 0.0 0.0 15.0 0.0 0.0 0.0 15.0" Properties=species:S:1:pos:R:3:forces:R:3 energy=        6.2855238311 pbc="T T T"
       O     0.0267119600    -0.0005438700     0.0000000000    -56.558167406     12.075683087     -0.000000000
       H     0.6693983200    -0.1027325300     0.0000000000     53.764628204     -7.107090165     -0.000000000
       H    -0.3720254000     1.0403110500     0.0000000000      2.793539202     -4.968592922     -0.000000000
