       3
Lattice="15.0 0.0 0.0 0.0 15.0 0.0 0.0 0.0 15.0" Properties=species:S:1:pos:R:3:forces:R:3 energy=        3.0327526413 pbc="T T T"
       O     0.0330066900     0.0075607900     0.0000000000    -19.121890888      8.498590622     -0.000000000
       H     0.7769473500    -0.2893607300     0.0000000000     14.436240753     -3.229678208     -0.000000000
       H    -0.5794812800     1.0983138300     0.0000000000      4.685650084     -5.268912414     -0.000000000
