       3
Lattice="15.0 0.0 0.0 0.0 15.0 0.0 0.0 0.0 15.0" Properties=species:S:1:pos:R:3:forces:R:3 energy=       25.4254923475 pbc="T T T"
       O    -0.0241278900     0.0155275400     0.0000000000    -29.803661411   -184.010198082     -0.000000000
       H     1.0290215900     0.1939208100     0.0000000000     -1.186829390     -4.018632744     -0.000000000
       H     0.0752239000     0.4885920800     0.0000000000     30.990490801    188.028830826     -0.000000000
