       3
Lattice="15.0 0.0 0.0 0.0 15.0 0.0 0.0 0.0 15.0" Properties=species:S:1:pos:R:3:forces:R:3 energy=        3.8828698997 pbc="T T T"
       O     0.0222473000    -0.0179472000     0.0000000000    -24.803542482      6.286318109     -0.000000000
       H     0.7803452800    -0.0790254300     0.0000000000     22.195853965     -0.560334558     -0.000000000
       H    -0.4121141300     1.2928080400     0.0000000000      2.607688516     -5.725983552     -0.000000000
