       3
Lattice="15.0 0.0 0.0 0.0 15.0 0.0 0.0 0.0 15.0" Properties=species:S:1:pos:R:3:forces:R:3 energy=        5.0530517334 pbc="T T T"
       O     0.0022453800     0.0087212300     0.0000000000    -11.347306906    -35.102608643     -0.000000000
       H     0.7766386800     0.0863246400     0.0000000000     19.310056185     -0.884930623     -0.000000000
       H    -0.0909586900     0.7042091200     0.0000000000     -7.962749279     35.987539266     -0.000000000
