       3
Lattice="15.0 0.0 0.0 0.0 15.0 0.0 0.0 0.0 15.0" Properties=species:S:1:pos:R:3:forces:R:3 energy=        1.4891885337 pbc="T T T"
       O    -0.0057428100    -0.0306956300     0.0000000000     -3.224062865      5.703335259     -0.000000000
       H     0.8543416600     0.2486346300     0.0000000000      4.942942196     -0.987356942     -0.000000000
       H    -0.0418786300     1.1674733800     0.0000000000     -1.718879331     -4.715978317     -0.000000000
