       3
Lattice="15.0 0.0 0.0 0.0 15.0 0.0 0.0 0.0 15.0" Properties=species:S:1:pos:R:3:forces:R:3 energy=        2.5800601924 pbc="T T T"
       O    -0.0333209600    -0.0021440400     0.0000000000      7.010774744    -10.194628519     -0.000000000
       H     1.3210056600     0.1361664600     0.0000000000     -5.568595146     -1.137314702     -0.000000000
       H    -0.0708607500     0.8268089700     0.0000000000     -1.442179649     11.331943221     -0.000000000
