       3
Lattice="15.0 0.0 0.0 0.0 15.0 0.0 0.0 0.0 15.0" Properties=species:S:1:pos:R:3:forces:R:3 energy=        4.2694011697 pbc="T T T"
       O    -0.0197642700     0.0094942100     0.0000000000     10.824842042    -35.868470754     -0.000000000
       H     1.1384738300     0.0741622300     0.0000000000     -5.218725845     -0.989254828     -0.000000000
       H    -0.1034851700     0.7041052000     0.0000000000     -5.606116198     36.857725582     -0.000000000
