       3
Lattice="15.0 0.0 0.0 0.0 15.0 0.0 0.0 0.0 15.0" Properties=species:S:1:pos:R:3:forces:R:3 energy=        2.6907242434 pbc="T T T"
       O     0.0205288000     0.0322677900     0.0000000000      1.554186623    -16.714901237     -0.000000000
       H     0.8097480300    -0.2389051500     0.0000000000      9.023161529     -1.449568232     -0.000000000
       H    -0.4142479300     0.6557396100     0.0000000000    -10.577348204     18.164469469     -0.000000000
