       3
Lattice="15.0 0.0 0.0 0.0 15.0 0.0 0.0 0.0 15.0" Properties=species:S:1:pos:R:3:forces:R:3 energy=        0.9150137446 pbc="T T T"
       O     0.0069476900     0.0089503500     0.0000000000     -6.418697332     -8.269645861     -0.000000000
       H     0.8490405200    -0.0285702900     0.0000000000      9.078238493     -0.423189536     -0.000000000
       H    -0.2379925900     0.8154688300     0.0000000000     -2.659541212      8.692835449     -0.000000000
