       3
Lattice="15.0 0.0 0.0 0.0 15.0 0.0 0.0 0.0 15.0" Properties=species:S:1:pos:R:3:forces:R:3 energy=        0.7795862031 pbc="T T T"
       O     0.0220584900     0.0225854100     0.0000000000     -5.127390756      0.019085359     -0.000000000
       H     0.8834751500    -0.2844988500     0.0000000000      2.430906579      1.066040655     -0.000000000
       H    -0.5122533500     0.8550004600     0.0000000000      2.696484228     -1.085126065     -0.000000000
