       3
Lattice="15.0 0.0 0.0 0.0 15.0 0.0 0.0 0.0 15.0" Properties=species:S:1:pos:R:3:forces:R:3 energy=        4.0451620508 pbc="T T T"
       O     0.0024341800    -0.0318113800     0.0000000000    -22.671263711     -3.499525743     -0.000000000
       H     0.6735088000     0.2917980500     0.0000000000     25.886293104      6.893501223     -0.000000000
       H     0.0091805300     1.1420167100     0.0000000000     -3.215029392     -3.393975429     -0.000000000
