       3
Lattice="15.0 0.0 0.0 0.0 15.0 0.0 0.0 0.0 15.0" Properties=species:S:1:pos:R:3:forces:R:3 energy=       15.7849804272 pbc="T T T"
       O    -0.0200402300     0.0207897000     0.0000000000     24.521905817   -122.291907191     -0.000000000
       H     1.1369443000     0.0431590200     0.0000000000     -5.485828005     -0.668990663     -0.000000000
       H    -0.0975768900     0.5558408300     0.0000000000    -19.036077812    122.960897905     -0.000000000
