       3
Lattice="15.0 0.0 0.0 0.0 15.0 0.0 0.0 0.0 15.0" Properties=species:S:1:pos:R:3:forces:R:3 energy=        2.9501046251 pbc="T T T"
       O     0.0134817500    -0.0117592800     0.0000000000    -29.243976726      3.505823766     -0.000000000
       H     0.7432600700     0.0383006600     0.0000000000     28.528220811      1.361640782     -0.000000000
       H    -0.2359103500     1.0772741400     0.0000000000      0.715755914     -4.867464547     -0.000000000
