       3
Lattice="15.0 0.0 0.0 0.0 15.0 0.0 0.0 0.0 15.0" Properties=species:S:1:pos:R:3:forces:R:3 energy=       12.1764125313 pbc="T T T"
       O     0.0415223700     0.0127074900     0.0000000000    -90.492528802     44.069125298     -0.000000000
       H     0.5590640800    -0.2413336700     0.0000000000     86.268547402    -39.400167954     -0.000000000
       H    -0.4967469500     0.9686037600     0.0000000000      4.223981400     -4.668957343     -0.000000000
