       3
Lattice="15.0 0.0 0.0 0.0 15.0 0.0 0.0 0.0 15.0" Properties=species:S:1:pos:R:3:forces:R:3 energy=        8.1338697179 pbc="T T T"
       O    -0.0210057800     0.0137207100     0.0000000000     13.428219691    -65.374056784     -0.000000000
       H     1.1378959000     0.0765938300     0.0000000000     -5.200823142     -1.121172126     -0.000000000
       H    -0.0832034900     0.6345960000     0.0000000000     -8.227396549     66.495228859     -0.000000000
