       3
Lattice="15.0 0.0 0.0 0.0 15.0 0.0 0.0 0.0 15.0" Properties=species:S:1:pos:R:3:forces:R:3 energy=        3.9366275628 pbc="T T T"
       O     0.0244543700    -0.0151047000     0.0000000000    -24.791142971      6.968129944     -0.000000000
       H     0.7799716000    -0.1148918500     0.0000000000     21.841308545     -1.330498794     -0.000000000
       H    -0.4467692100     1.2835620700     0.0000000000      2.949834374     -5.637631150     -0.000000000
