       3
Lattice="15.0 0.0 0.0 0.0 15.0 0.0 0.0 0.0 15.0" Properties=species:S:1:pos:R:3:forces:R:3 energy=        1.7372927130 pbc="T T T"
       O    -0.0016307200    -0.0137542800     0.0000000000      2.322360311      4.758182481     -0.000000000
       H     1.1055037100    -0.0504577800     0.0000000000     -4.618354255      0.856561674     -0.000000000
       H    -0.3583103600     1.1976966800     0.0000000000      2.295993944     -5.614744207     -0.000000000
