       3
Lattice="15.0 0.0 0.0 0.0 15.0 0.0 0.0 0.0 15.0" Properties=species:S:1:pos:R:3:forces:R:3 energy=        2.6498833762 pbc="T T T"
       O    -0.0043530800     0.0235129900     0.0000000000      3.375995902     -3.049448420     -0.000000000
       H     1.3176773400    -0.2990937400     0.0000000000     -5.711077420      2.915173728     -0.000000000
       H    -0.5272851200     0.8548757500     0.0000000000      2.335081570      0.134274640     -0.000000000
