       3
Lattice="15.0 0.0 0.0 0.0 15.0 0.0 0.0 0.0 15.0" Properties=species:S:1:pos:R:3:forces:R:3 energy=        0.0831461614 pbc="T T T"
       O     0.0015802100     0.0020359500     0.0000000000     -1.581204817     -2.036279698     -0.000000000
       H     0.9223591500     0.0024320400     0.0000000000      2.284499257     -0.141822632     -0.000000000
       H    -0.2261244800     0.8942032100     0.0000000000     -0.703294440      2.178102330     -0.000000000
