       3
Lattice="15.0 0.0 0.0 0.0 15.0 0.0 0.0 0.0 15.0" Properties=species:S:1:pos:R:3:forces:R:3 energy=        2.2827353098 pbc="T T T"
       O    -0.0042131200    -0.0403780100     0.0000000000     -0.423058924      6.253001225     -0.000000000
       H     0.9280687900     0.2030409300     0.0000000000      0.592019871     -0.882050832     -0.000000000
       H    -0.1398840500     1.3667342200     0.0000000000     -0.168960998     -5.370950393     -0.000000000
