       3
Lattice="15.0 0.0 0.0 0.0 15.0 0.0 0.0 0.0 15.0" Properties=species:S:1:pos:R:3:forces:R:3 energy=        3.0351814779 pbc="T T T"
       O    -0.0276408800     0.0109936700     0.0000000000      6.432353598     -7.369837646     -0.000000000
       H     1.4640755600    -0.0863286000     0.0000000000     -5.508314884      1.021766237     -0.000000000
       H    -0.3040835300     0.8408007900     0.0000000000     -0.924038714      6.348071409     -0.000000000
