       3
Lattice="15.0 0.0 0.0 0.0 15.0 0.0 0.0 0.0 15.0" Properties=species:S:1:pos:R:3:forces:R:3 energy=       15.2412502211 pbc="T T T"
       O    -0.0301222400     0.0078065900     0.0000000000    -22.830009146   -102.573594392     -0.000000000
       H     1.0662414300     0.2632216000     0.0000000000     -1.056524123     -4.565830913     -0.000000000
       H     0.1331405800     0.5418282300     0.0000000000     23.886533270    107.139425305     -0.000000000
