       3
Lattice="15.0 0.0 0.0 0.0 15.0 0.0 0.0 0.0 15.0" Properties=species:S:1:pos:R:3:forces:R:3 energy=        4.2481410118 pbc="T T T"
       O     0.0046412500    -0.0289688800     0.0000000000    -27.070590367     -4.021138337     -0.000000000
       H     0.6731351200     0.2559316400     0.0000000000     29.819877058      7.762335961     -0.000000000
       H    -0.0254745500     1.1327707400     0.0000000000     -2.749286690     -3.741197675     -0.000000000
