       3
Lattice="15.0 0.0 0.0 0.0 15.0 0.0 0.0 0.0 15.0" Properties=species:S:1:pos:R:3:forces:R:3 energy=       23.2855543450 pbc="T T T"
       O     0.0437172300     0.0097103900     0.0000000000   -166.205981268     79.243865091     -0.000000000
       H     0.4870707300    -0.2030347700     0.0000000000    162.168781550    -74.446904957     -0.000000000
       H    -0.4595865700     0.9778705100     0.0000000000      4.037199717     -4.796960186     -0.000000000
