       3
Lattice="15.0 0.0 0.0 0.0 15.0 0.0 0.0 0.0 15.0" Properties=species:S:1:pos:R:3:forces:R:3 energy=        1.0995745429 pbc="T T T"
       O     0.0107593900     0.0255079900     0.0000000000      5.451989958    -12.434590745     -0.000000000
       H     0.9554337000    -0.2103353000     0.0000000000     -1.265760392      1.837130386     -0.000000000
       H    -0.4048851200     0.7344532100     0.0000000000     -4.186229566     10.597460359     -0.000000000
