       3
Lattice="15.0 0.0 0.0 0.0 15.0 0.0 0.0 0.0 15.0" Properties=species:S:1:pos:R:3:forces:R:3 energy=        1.6367496404 pbc="T T T"
       O    -0.0270506500    -0.0057185700     0.0000000000      6.418384685     -1.052825950     -0.000000000
       H     1.2853153500     0.0978688800     0.0000000000     -5.817349649     -0.737166272     -0.000000000
       H    -0.1346857100     0.9218372000     0.0000000000     -0.601034986      1.789992222     -0.000000000
