       3
Lattice="15.0 0.0 0.0 0.0 15.0 0.0 0.0 0.0 15.0" Properties=species:S:1:pos:R:3:forces:R:3 energy=        1.7821069732 pbc="T T T"
       O     0.0103213400    -0.0158311700     0.0000000000    -15.325879428      4.955456995     -0.000000000
       H     0.8162050300     0.0334365800     0.0000000000     14.151895635      0.678189766     -0.000000000
       H    -0.2586973300     1.1467625600     0.0000000000      1.173983793     -5.633646812     -0.000000000
