       3
Lattice="15.0 0.0 0.0 0.0 15.0 0.0 0.0 0.0 15.0" Properties=species:S:1:pos:R:3:forces:R:3 energy=        5.0933606779 pbc="T T T"
       O     0.0040143900    -0.0297754300     0.0000000000    -29.875982566     -7.892961176     -0.000000000
       H     0.6370363200     0.2942300900     0.0000000000     33.671444736     10.484675318     -0.000000000
       H     0.0205740200     1.1072725000     0.0000000000     -3.795462170     -2.591714142     -0.000000000
