       3
Lattice="15.0 0.0 0.0 0.0 15.0 0.0 0.0 0.0 15.0" Properties=species:S:1:pos:R:3:forces:R:3 energy=        2.5398541641 pbc="T T T"
       O    -0.0356029700    -0.0283840600     0.0000000000      6.218841738      6.544487842     -0.000000000
       H     1.2883396000     0.2723377600     0.0000000000     -5.000272733     -2.067135522     -0.000000000
       H    -0.0019736400     1.1070854400     0.0000000000     -1.218569005     -4.477352320     -0.000000000
