       3
Lattice="15.0 0.0 0.0 0.0 15.0 0.0 0.0 0.0 15.0" Properties=species:S:1:pos:R:3:forces:R:3 energy=        0.9628510918 pbc="T T T"
       O    -0.0047284100    -0.0002682500     0.0000000000      3.265460936      2.390223686     -0.000000000
       H     1.1398687300    -0.0814614400     0.0000000000     -5.363449505      1.183124120     -0.000000000
       H    -0.3435138900     1.0146673200     0.0000000000      2.097988568     -3.573347754     -0.000000000
