       3
Lattice="15.0 0.0 0.0 0.0 15.0 0.0 0.0 0.0 15.0" Properties=species:S:1:pos:R:3:forces:R:3 energy=        1.7193688206 pbc="T T T"
       O    -0.0022942200    -0.0320796200     0.0000000000     -4.712149531      5.639104598     -0.000000000
       H     0.8545459100     0.2103366200     0.0000000000      5.591849499     -0.300327462     -0.000000000
       H    -0.0968153900     1.2277366100     0.0000000000     -0.879699968     -5.338777136     -0.000000000
