       3
Lattice="15.0 0.0 0.0 0.0 15.0 0.0 0.0 0.0 15.0" Properties=species:S:1:pos:R:3:forces:R:3 energy=       33.3619115329 pbc="T T T"
       O     0.0430903700     0.0089038400     0.0000000000   -241.159582146    101.856968725     -0.000000000
       H     0.4509719400    -0.1647363100     0.0000000000    237.711242206    -97.782100117     -0.000000000
       H    -0.4135380000     0.9523722700     0.0000000000      3.448339940     -4.074868608     -0.000000000
