       3
Lattice="15.0 0.0 0.0 0.0 15.0 0.0 0.0 0.0 15.0" Properties=species:S:1:pos:R:3:forces:R:3 energy=        1.4068676474 pbc="T T T"
       O    -0.0088910100    -0.0289279300     0.0000000000      2.266936300      6.921387061     -0.000000000
       H     0.9989062900     0.1696052400     0.0000000000     -2.097503401     -1.330709676     -0.000000000
       H    -0.1364810700     1.2184490700     0.0000000000     -0.169432950     -5.590677384     -0.000000000
