       3
Lattice="15.0 0.0 0.0 0.0 15.0 0.0 0.0 0.0 15.0" Properties=species:S:1:pos:R:3:forces:R:3 energy=        4.0983457224 pbc="T T T"
       O     0.0000871500     0.0292371200     0.0000000000     21.122107402    -34.892748934     -0.000000000
       H     1.0634910300    -0.1744702000     0.0000000000     -4.947992462      2.224511998     -0.000000000
       H    -0.3435654600     0.6394042000     0.0000000000    -16.174114940     32.668236936     -0.000000000
