       3
Lattice="15.0 0.0 0.0 0.0 15.0 0.0 0.0 0.0 15.0" Properties=species:S:1:pos:R:3:forces:R:3 energy=        8.1155095889 pbc="T T T"
       O     0.0010282800     0.0246269200     0.0000000000     23.596015239    -68.238155678     -0.000000000
       H     0.9193000900    -0.0595743900     0.0000000000      1.526911011      0.149034734     -0.000000000
       H    -0.2143079400     0.5976744800     0.0000000000    -25.122926250     68.089120893     -0.000000000
