       3
Lattice="15.0 0.0 0.0 0.0 15.0 0.0 0.0 0.0 15.0" Properties=species:S:1:pos:R:3:forces:R:3 energy=        2.1359917501 pbc="T T T"
       O    -0.0092297000    -0.0351903700     0.0000000000      3.020405122      6.820318079     -0.000000000
       H     1.0359566900     0.1647416000     0.0000000000     -3.236783661     -1.193614894     -0.000000000
       H    -0.1681562300     1.3227024800     0.0000000000      0.216378539     -5.626703185     -0.000000000
