       3
Lattice="15.0 0.0 0.0 0.0 15.0 0.0 0.0 0.0 15.0" Properties=species:S:1:pos:R:3:forces:R:3 energy=        2.6896707301 pbc="T T T"
       O    -0.0081264800     0.0128340700     0.0000000000     10.470693189    -28.207194005     -0.000000000
       H     1.0294648800     0.0048623200     0.0000000000     -3.310224018     -0.178066616     -0.000000000
       H    -0.1791782300     0.7203990400     0.0000000000     -7.160469172     28.385260569     -0.000000000
