       3
Lattice="15.0 0.0 0.0 0.0 15.0 0.0 0.0 0.0 15.0" Properties=species:S:1:pos:R:3:forces:R:3 energy=        2.4174806020 pbc="T T T"
       O    -0.0156766100     0.0147563700     0.0000000000     10.229898723    -15.755318702     -0.000000000
       H     1.2463965400    -0.0765995600     0.0000000000     -6.330515497      1.138812319     -0.000000000
       H    -0.2762859600     0.7713539500     0.0000000000     -3.899383226     14.616506383     -0.000000000
