       3
Lattice="15.0 0.0 0.0 0.0 15.0 0.0 0.0 0.0 15.0" Properties=species:S:1:pos:R:3:forces:R:3 energy=        1.8127988560 pbc="T T T"
       O    -0.0223605500    -0.0113290600     0.0000000000      5.155418210      4.103989810     -0.000000000
       H     1.2860975200     0.0571392700     0.0000000000     -5.921184470     -0.241395488     -0.000000000
       H    -0.2099041500     1.0516096300     0.0000000000      0.765766260     -3.862594322     -0.000000000
