       3
Lattice="15.0 0.0 0.0 0.0 15.0 0.0 0.0 0.0 15.0" Properties=species:S:1:pos:R:3:forces:R:3 energy=        2.3354617539 pbc="T T T"
       O    -0.0213811100    -0.0100605300     0.0000000000      2.372280462    -11.013545574     -0.000000000
       H     0.9600873000     0.2942261300     0.0000000000      0.818036709     -4.258909647     -0.000000000
       H     0.1005677400     0.7943875700     0.0000000000     -3.190317171     15.272455221     -0.000000000
