       3
Lattice="15.0 0.0 0.0 0.0 15.0 0.0 0.0 0.0 15.0" Properties=species:S:1:pos:R:3:forces:R:3 energy=        8.9600391934 pbc="T T T"
       O    -0.0304487200     0.0073837500     0.0000000000      1.645802426    -65.174227827     -0.000000000
       H     1.1749115000     0.1841926400     0.0000000000     -4.446637856     -2.589847674     -0.000000000
       H     0.0296499500     0.6275689100     0.0000000000      2.800835431     67.764075501     -0.000000000
