       3
Lattice="15.0 0.0 0.0 0.0 15.0 0.0 0.0 0.0 15.0" Properties=species:S:1:pos:R:3:forces:R:3 energy=        0.9335679016 pbc="T T T"
       O    -0.0129542500    -0.0225108900     0.0000000000      3.686332056      6.405248708     -0.000000000
       H     1.0342229200     0.1720364000     0.0000000000     -3.088375865     -1.651201796     -0.000000000
       H    -0.1073112000     1.1141748800     0.0000000000     -0.597956191     -4.754046911     -0.000000000
