       3
Lattice="15.0 0.0 0.0 0.0 15.0 0.0 0.0 0.0 15.0" Properties=species:S:1:pos:R:3:forces:R:3 energy=        0.5661601842 pbc="T T T"
       O    -0.0006390800    -0.0066461500     0.0000000000     -6.242849733     -0.923939367     -0.000000000
       H     0.8511131600     0.1124637700     0.0000000000      8.143942255     -0.706022073     -0.000000000
       H    -0.1196539300     0.9219619000     0.0000000000     -1.901092521      1.629961440     -0.000000000
