       3
Lattice="15.0 0.0 0.0 0.0 15.0 0.0 0.0 0.0 15.0" Properties=species:S:1:pos:R:3:forces:R:3 energy=        2.7417345062 pbc="T T T"
       O     0.0200524400    -0.0149501000     0.0000000000    -12.998287536      5.378735749     -0.000000000
       H     0.8523386300    -0.1173243300     0.0000000000     10.080630276      0.178371292     -0.000000000
       H    -0.4492745100     1.2835412900     0.0000000000      2.917657260     -5.557107040     -0.000000000
