       3
Lattice="15.0 0.0 0.0 0.0 15.0 0.0 0.0 0.0 15.0" Properties=species:S:1:pos:R:3:forces:R:3 energy=        0.2616746335 pbc="T T T"
       O    -0.0110231400    -0.0083729100     0.0000000000      3.872838888      1.596459230     -0.000000000
       H     1.0323197000     0.1051667700     0.0000000000     -3.007048646     -1.178174127     -0.000000000
       H    -0.1360580100     0.9566645400     0.0000000000     -0.865790242     -0.418285052     -0.000000000
