       3
Lattice="15.0 0.0 0.0 0.0 15.0 0.0 0.0 0.0 15.0" Properties=species:S:1:pos:R:3:forces:R:3 energy=        5.7666262216 pbc="T T T"
       O    -0.0197398400     0.0211734100     0.0000000000     19.160716673    -40.966101388     -0.000000000
       H     1.2817131700    -0.0741684000     0.0000000000     -6.463783395      1.131557125     -0.000000000
       H    -0.2471160900     0.6670797500     0.0000000000    -12.696933278     39.834544263     -0.000000000
