       3
Lattice="15.0 0.0 0.0 0.0 15.0 0.0 0.0 0.0 15.0" Properties=species:S:1:pos:R:3:forces:R:3 energy=        2.5659414913 pbc="T T T"
       O     0.0039760900    -0.0356541600     0.0000000000     -9.991746272      4.263319863     -0.000000000
       H     0.8188556000     0.1720390400     0.0000000000     10.101670086      1.273014968     -0.000000000
       H    -0.1606403500     1.3227648300     0.0000000000     -0.109923814     -5.536334831     -0.000000000
