       3
Lattice="15.0 0.0 0.0 0.0 15.0 0.0 0.0 0.0 15.0" Properties=species:S:1:pos:R:3:forces:R:3 energy=       19.4703450505 pbc="T T T"
       O     0.0232389500    -0.0108390700     0.0000000000   -151.212792668    -22.086256579     -0.000000000
       H     0.5259547300     0.0838961200     0.0000000000    152.214095794     25.357101665     -0.000000000
       H    -0.1734577100     1.0170732600     0.0000000000     -1.001303126     -3.270845086     -0.000000000
