       3
Lattice="15.0 0.0 0.0 0.0 15.0 0.0 0.0 0.0 15.0" Properties=species:S:1:pos:R:3:forces:R:3 energy=        8.4385664289 pbc="T T T"
       O    -0.0216448600     0.0070745500     0.0000000000      0.768597097    -64.643018740     -0.000000000
       H     1.0301774400     0.1890576000     0.0000000000     -1.854578621     -3.318239024     -0.000000000
       H     0.0346605500     0.6276104800     0.0000000000      1.085981523     67.961257815     -0.000000000
