       3
Lattice="15.0 0.0 0.0 0.0 15.0 0.0 0.0 0.0 15.0" Properties=species:S:1:pos:R:3:forces:R:3 energy=        2.7043694582 pbc="T T T"
       O     0.0141713400     0.0066052000     0.0000000000    -27.545675691     -3.234635760     -0.000000000
       H     0.7407789300    -0.0261373700     0.0000000000     29.137257485     -1.482469009     -0.000000000
       H    -0.2443754900     0.8502546100     0.0000000000     -1.591581794      4.717104769     -0.000000000
