       3
Lattice="15.0 0.0 0.0 0.0 15.0 0.0 0.0 0.0 15.0" Properties=species:S:1:pos:R:3:forces:R:3 energy=       12.0811518527 pbc="T T T"
       O     0.0345624700    -0.0020824600     0.0000000000    -94.869272162     25.621689594     -0.000000000
       H     0.5972355300    -0.1385980600     0.0000000000     91.284182534    -19.839012316     -0.000000000
       H    -0.4244568600     1.1005950700     0.0000000000      3.585089628     -5.782677226     -0.000000000
