       3
Lattice="15.0 0.0 0.0 0.0 15.0 0.0 0.0 0.0 15.0" Properties=species:S:1:pos:R:3:forces:R:3 energy=        1.6502900479 pbc="T T T"
       O    -0.0079498800    -0.0335381300     0.0000000000     -2.079882594      5.922324035     -0.000000000
       H     0.8547153400     0.2845010500     0.0000000000      4.188763235     -1.410536451     -0.000000000
       H    -0.0072235500     1.1767193400     0.0000000000     -2.108880692     -4.511787584     -0.000000000
