       3
Lattice="15.0 0.0 0.0 0.0 15.0 0.0 0.0 0.0 15.0" Properties=species:S:1:pos:R:3:forces:R:3 energy=        9.5094440809 pbc="T T T"
       O     0.0307752000    -0.0069609100     0.0000000000    -75.926801627     16.029319598     -0.000000000
       H     0.6340816900    -0.1051636900     0.0000000000     72.769443083    -10.078955304     -0.000000000
       H    -0.4011952600     1.1445852400     0.0000000000      3.157358544     -5.950364294     -0.000000000
