       3
Lattice="15.0 0.0 0.0 0.0 15.0 0.0 0.0 0.0 15.0" Properties=species:S:1:pos:R:3:forces:R:3 energy=        1.5762822672 pbc="T T T"
       O    -0.0166421600     0.0076873800     0.0000000000      7.161478947     -6.609320604     -0.000000000
       H     1.2473481500    -0.0431647400     0.0000000000     -6.210568798      0.752569758     -0.000000000
       H    -0.2619125600     0.8501091100     0.0000000000     -0.950910098      5.856750897     -0.000000000
