       3
Lattice="15.0 0.0 0.0 0.0 15.0 0.0 0.0 0.0 15.0" Properties=species:S:1:pos:R:3:forces:R:3 energy=        1.6056078745 pbc="T T T"
       O    -0.0009028300     0.0104889300     0.0000000000      3.365771956    -19.459180907     -0.000000000
       H     0.9212033000     0.0072952400     0.0000000000      2.123628650     -0.453047566     -0.000000000
       H    -0.1855611300     0.7551848100     0.0000000000     -5.489400606     19.912228473     -0.000000000
