       3
Lattice="15.0 0.0 0.0 0.0 15.0 0.0 0.0 0.0 15.0" Properties=species:S:1:pos:R:3:forces:R:3 energy=        6.5776125709 pbc="T T T"
       O     0.0043530800    -0.0235129900     0.0000000000    -38.458386254    -15.173158553     -0.000000000
       H     0.5999859200     0.2990937400     0.0000000000     43.899610072     14.331672755     -0.000000000
       H     0.0522491800     1.0030190900     0.0000000000     -5.441223869      0.841485849     -0.000000000
