       3
Lattice="15.0 0.0 0.0 0.0 15.0 0.0 0.0 0.0 15.0" Properties=species:S:1:pos:R:3:forces:R:3 energy=       15.6187558009 pbc="T T T"
       O    -0.0002132300     0.0288534100     0.0000000000     44.772274110   -120.178461914     -0.000000000
       H     0.9187221600    -0.0571427900     0.0000000000      1.309327190      0.153192004     -0.000000000
       H    -0.1940262600     0.5281652800     0.0000000000    -46.081601300    120.025269911     -0.000000000
