       3
Lattice="15.0 0.0 0.0 0.0 15.0 0.0 0.0 0.0 15.0" Properties=species:S:1:pos:R:3:forces:R:3 energy=       26.6003984180 pbc="T T T"
       O     0.0475045100     0.0145888400     0.0000000000   -177.678602156    109.224433087     -0.000000000
       H     0.4502245800    -0.2364691500     0.0000000000    173.684290619   -104.879671077     -0.000000000
       H    -0.4828481700     0.9338803300     0.0000000000      3.994311537     -4.344762010     -0.000000000
