       3
Lattice="15.0 0.0 0.0 0.0 15.0 0.0 0.0 0.0 15.0" Properties=species:S:1:pos:R:3:forces:R:3 energy=        0.6029554394 pbc="T T T"
       O    -0.0160641400    -0.0148644600     0.0000000000      3.983564732      1.935620653     -0.000000000
       H     0.9969682700     0.2151980600     0.0000000000     -1.660953275     -2.585624790     -0.000000000
       H    -0.0206992700     0.9496582400     0.0000000000     -2.322611457      0.650004188     -0.000000000
