       3
Lattice="15.0 0.0 0.0 0.0 15.0 0.0 0.0 0.0 15.0" Properties=species:S:1:pos:R:3:forces:R:3 energy=        4.0073563797 pbc="T T T"
       O    -0.0140719800     0.0284715200     0.0000000000     13.537648104    -19.636439219     -0.000000000
       H     1.3531634000    -0.2224981400     0.0000000000     -6.040591905      2.401253363     -0.000000000
       H    -0.4085234000     0.6995843000     0.0000000000     -7.497056250     17.235185856     -0.000000000
