       3
Lattice="15.0 0.0 0.0 0.0 15.0 0.0 0.0 0.0 15.0" Properties=species:S:1:pos:R:3:forces:R:3 energy=        3.6875360810 pbc="T T T"
       O     0.0043025600    -0.0352313200     0.0000000000    -20.387098904     -0.623717577     -0.000000000
       H     0.7101855300     0.2510680000     0.0000000000     22.114051143      5.437574084     -0.000000000
       H    -0.0571497200     1.2370241400     0.0000000000     -1.726952239     -4.813856507     -0.000000000
