       3
Lattice="15.0 0.0 0.0 0.0 15.0 0.0 0.0 0.0 15.0" Properties=species:S:1:pos:R:3:forces:R:3 energy=        1.6370866153 pbc="T T T"
       O    -0.0150619500     0.0097233300     0.0000000000      8.251537676    -10.341911713     -0.000000000
       H     1.2108756700    -0.0407327000     0.0000000000     -6.142462043      0.715646488     -0.000000000
       H    -0.2505190700     0.8153649100     0.0000000000     -2.109075633      9.626265276     -0.000000000
