       3
Lattice="15.0 0.0 0.0 0.0 15.0 0.0 0.0 0.0 15.0" Properties=species:S:1:pos:R:3:forces:R:3 energy=        2.0146822566 pbc="T T T"
       O     0.0000000000     0.0000000000     0.0000000000     -4.058810158      6.643908643     -0.000000000
       H     0.8842100000     0.0000000000     0.0000000000      5.732823564     -1.339637579     -0.000000000
       H     0.1909100000     1.3125100000     0.0000000000     -1.674013406     -5.304271064     -0.000000000
