       3
Lattice="15.0 0.0 0.0 0.0 15.0 0.0 0.0 0.0 15.0" Properties=species:S:1:pos:R:3:forces:R:3 energy=        1.7862722227 pbc="T T T"
       O     0.0000000000     0.0000000000     0.0000000000    -12.806573858      6.536506311     -0.000000000
       H     0.8105300000     0.0000000000     0.0000000000     13.948929622     -1.390297797     -0.000000000
       H     0.0425600000     1.1781800000     0.0000000000     -1.142355763     -5.146208514     -0.000000000
