       3
Lattice="15.0 0.0 0.0 0.0 15.0 0.0 0.0 0.0 15.0" Properties=species:S:1:pos:R:3:forces:R:3 energy=        0.4540343511 pbc="T T T"
       O     0.0000000000     0.0000000000     0.0000000000      5.436538083     -5.391015292     -0.000000000
       H     1.0684200000     0.0000000000     0.0000000000     -4.206449399      0.423961485     -0.000000000
       H    -0.2974100000     0.8326900000     0.0000000000     -1.230088684      4.967053807     -0.000000000
