       3
Lattice="15.0 0.0 0.0 0.0 15.0 0.0 0.0 0.0 15.0" Properties=species:S:1:pos:R:3:forces:R:3 energy=        2.6555038580 pbc="T T T"
       O     0.0000000000     0.0000000000     0.0000000000    -23.312442378      3.736964866     -0.000000000
       H     0.7736800000     0.0000000000     0.0000000000     19.412968854      1.429478394     -0.000000000
       H    -0.5887900000     1.0637100000     0.0000000000      3.899473524     -5.166443311     -0.000000000
