       3
Lattice="15.0 0.0 0.0 0.0 15.0 0.0 0.0 0.0 15.0" Properties=species:S:1:pos:R:3:forces:R:3 energy=        2.3570170438 pbc="T T T"
       O     0.0000000000     0.0000000000     0.0000000000    -13.524813254      6.599472812     -0.000000000
       H     0.8105300000     0.0000000000     0.0000000000     13.893322548     -0.754056679     -0.000000000
       H    -0.0232800000     1.2892600000     0.0000000000     -0.368509294     -5.845416132     -0.000000000
