       3
Lattice="15.0 0.0 0.0 0.0 15.0 0.0 0.0 0.0 15.0" Properties=species:S:1:pos:R:3:forces:R:3 energy=        2.6437879985 pbc="T T T"
       O     0.0000000000     0.0000000000     0.0000000000     -7.721942523      1.405344106     -0.000000000
       H     0.9210500000     0.0000000000     0.0000000000      2.276247966      2.107406010     -0.000000000
       H    -0.9551600000     0.9725600000     0.0000000000      5.445694557     -3.512750115     -0.000000000
