       3
Lattice="15.0 0.0 0.0 0.0 15.0 0.0 0.0 0.0 15.0" Properties=species:S:1:pos:R:3:forces:R:3 energy=        2.4894911377 pbc="T T T"
       O     0.0000000000     0.0000000000     0.0000000000      8.727487663    -19.266266987     -0.000000000
       H     1.2157900000     0.0000000000     0.0000000000     -5.835449401     -0.259513700     -0.000000000
       H    -0.0975200000     0.7675100000     0.0000000000     -2.892038262     19.525780738     -0.000000000
