       3
Lattice="15.0 0.0 0.0 0.0 15.0 0.0 0.0 0.0 15.0" Properties=species:S:1:pos:R:3:forces:R:3 energy=        4.2134333570 pbc="T T T"
       O     0.0000000000     0.0000000000     0.0000000000    -25.852436030      7.081188551     -0.000000000
       H     0.7368400000     0.0000000000     0.0000000000     27.638132193     -1.816852652     -0.000000000
       H     0.1909100000     1.3125100000     0.0000000000     -1.785696163     -5.264335899     -0.000000000
