       3
Lattice="15.0 0.0 0.0 0.0 15.0 0.0 0.0 0.0 15.0" Properties=species:S:1:pos:R:3:forces:R:3 energy=        1.9386154883 pbc="T T T"
       O     0.0000000000     0.0000000000     0.0000000000      1.905319468    -17.006036436     -0.000000000
       H     0.8473700000     0.0000000000     0.0000000000      8.014827563      1.009544081     -0.000000000
       H    -0.4456700000     0.6324200000     0.0000000000     -9.920147032     15.996492354     -0.000000000
