       3
Lattice="15.0 0.0 0.0 0.0 15.0 0.0 0.0 0.0 15.0" Properties=species:S:1:pos:R:3:forces:R:3 energy=        2.2909282472 pbc="T T T"
       O     0.0000000000     0.0000000000     0.0000000000      6.460676576     -5.516321663     -0.000000000
       H     1.4000000000     0.0000000000     0.0000000000     -5.839233449      0.046107358     -0.000000000
       H    -0.1114500000     0.8771600000     0.0000000000     -0.621443178      5.470214305     -0.000000000
