       3
Lattice="15.0 0.0 0.0 0.0 15.0 0.0 0.0 0.0 15.0" Properties=species:S:1:pos:R:3:forces:R:3 energy=        4.9617013119 pbc="T T T"
       O     0.0000000000     0.0000000000     0.0000000000      0.401648052      1.035310712     -0.000000000
       H     1.4000000000     0.0000000000     0.0000000000     -5.405825213      1.501960809     -0.000000000
       H    -1.0336100000     0.9442700000     0.0000000000      5.004177109     -2.537271521     -0.000000000
