       3
Lattice="15.0 0.0 0.0 0.0 15.0 0.0 0.0 0.0 15.0" Properties=species:S:1:pos:R:3:forces:R:3 energy=        5.5249675299 pbc="T T T"
       O     0.0000000000     0.0000000000     0.0000000000    -25.530110919    -14.742691043     -0.000000000
       H     0.7736800000     0.0000000000     0.0000000000     22.445414149     -9.399811813     -0.000000000
       H     0.3868400000     0.6700300000     0.0000000000      3.084696821     24.142502857     -0.000000000
