       3
Lattice="15.0 0.0 0.0 0.0 15.0 0.0 0.0 0.0 15.0" Properties=species:S:1:pos:R:3:forces:R:3 energy=        1.6662407909 pbc="T T T"
       O     0.0000000000     0.0000000000     0.0000000000      6.894985727      3.053769160     -0.000000000
       H     1.2894700000     0.0000000000     0.0000000000     -5.518410788     -0.834222120     -0.000000000
       H     0.1484800000     1.0208400000     0.0000000000     -1.376574939     -2.219547041     -0.000000000
