       3
Lattice="15.0 0.0 0.0 0.0 15.0 0.0 0.0 0.0 15.0" Properties=species:S:1:pos:R:3:forces:R:3 energy=        2.3140118075 pbc="T T T"
       O     0.0000000000     0.0000000000     0.0000000000      8.506697931    -13.600550738     -0.000000000
       H     1.2894700000     0.0000000000     0.0000000000     -6.126145043      0.056742320     -0.000000000
       H    -0.1455500000     0.7973500000     0.0000000000     -2.380552888     13.543808419     -0.000000000
