       3
Lattice="15.0 0.0 0.0 0.0 15.0 0.0 0.0 0.0 15.0" Properties=species:S:1:pos:R:3:forces:R:3 energy=        3.2716715328 pbc="T T T"
       O     0.0000000000     0.0000000000     0.0000000000      6.872600252      5.919096476     -0.000000000
       H     1.2894700000     0.0000000000     0.0000000000     -5.613069904     -0.491804496     -0.000000000
       H     0.1962100000     1.3489600000     0.0000000000     -1.259530349     -5.427291980     -0.000000000
