       3
Lattice="15.0 0.0 0.0 0.0 15.0 0.0 0.0 0.0 15.0" Properties=species:S:1:pos:R:3:forces:R:3 energy=        2.9575659137 pbc="T T T"
       O     0.0000000000     0.0000000000     0.0000000000     19.592998251    -23.989188520     -0.000000000
       H     1.1052600000     0.0000000000     0.0000000000     -5.509096860      1.110887914     -0.000000000
       H    -0.4244500000     0.6023100000     0.0000000000    -14.083901443     22.878300554     -0.000000000
