       3
Lattice="15.0 0.0 0.0 0.0 15.0 0.0 0.0 0.0 15.0" Properties=species:S:1:pos:R:3:forces:R:3 energy=        2.2711219202 pbc="T T T"
       O     0.0000000000     0.0000000000     0.0000000000      6.143961305     -3.936770529     -0.000000000
       H     1.3631600000     0.0000000000     0.0000000000     -6.228062387      1.074842214     -0.000000000
       H    -0.4890200000     0.7805100000     0.0000000000      0.084101030      2.861928316     -0.000000000
