       3
Lattice="15.0 0.0 0.0 0.0 15.0 0.0 0.0 0.0 15.0" Properties=species:S:1:pos:R:3:forces:R:3 energy=        0.3003143581 pbc="T T T"
       O     0.0000000000     0.0000000000     0.0000000000     -3.717707140      3.542544073     -0.000000000
       H     0.9210500000     0.0000000000     0.0000000000      2.296659757      0.307748750     -0.000000000
       H    -0.3043700000     1.0241500000     0.0000000000      1.421047331     -3.850292822     -0.000000000
