       3
Lattice="15.0 0.0 0.0 0.0 15.0 0.0 0.0 0.0 15.0" Properties=species:S:1:pos:R:3:forces:R:3 energy=        1.3158048339 pbc="T T T"
       O     0.0000000000     0.0000000000     0.0000000000     -2.105498919    -12.309723262     -0.000000000
       H     0.8473700000     0.0000000000     0.0000000000      8.161022307      0.890757722     -0.000000000
       H    -0.4303400000     0.6868500000     0.0000000000     -6.055523388     11.418965539     -0.000000000
