       3
Lattice="15.0 0.0 0.0 0.0 15.0 0.0 0.0 0.0 15.0" Properties=species:S:1:pos:R:3:forces:R:3 energy=        1.0157027763 pbc="T T T"
       O     0.0000000000     0.0000000000     0.0000000000     -4.438062915      1.996044434     -0.000000000
       H     0.9578900000     0.0000000000     0.0000000000     -0.227782210      1.664035772     -0.000000000
       H    -0.7074800000     0.8966000000     0.0000000000      4.665845124     -3.660080206     -0.000000000
