       3
Lattice="15.0 0.0 0.0 0.0 15.0 0.0 0.0 0.0 15.0" Properties=species:S:1:pos:R:3:forces:R:3 energy=        4.0623819628 pbc="T T T"
       O     0.0000000000     0.0000000000     0.0000000000    -40.728157762      0.949378953     -0.000000000
       H     0.7000000000     0.0000000000     0.0000000000     36.454311644      1.959639190     -0.000000000
       H    -0.7062700000     0.8016900000     0.0000000000      4.273846118     -2.909018144     -0.000000000
