       3
Lattice="15.0 0.0 0.0 0.0 15.0 0.0 0.0 0.0 15.0" Properties=species:S:1:pos:R:3:forces:R:3 energy=        0.4167834603 pbc="T T T"
       O     0.0000000000     0.0000000000     0.0000000000      3.255489988     -1.426544815     -0.000000000
       H     1.0684200000     0.0000000000     0.0000000000     -4.345412860      1.027984865     -0.000000000
       H    -0.4638900000     0.8380700000     0.0000000000      1.089922872      0.398559950     -0.000000000
