       3
Lattice="15.0 0.0 0.0 0.0 15.0 0.0 0.0 0.0 15.0" Properties=species:S:1:pos:R:3:forces:R:3 energy=        4.2165118191 pbc="T T T"
       O     0.0000000000     0.0000000000     0.0000000000      2.807208633    -32.986443704     -0.000000000
       H     0.8105300000     0.0000000000     0.0000000000     12.887284527      0.166933785     -0.000000000
       H    -0.3053400000     0.6298900000     0.0000000000    -15.694493160     32.819509919     -0.000000000
