       3
Lattice="15.0 0.0 0.0 0.0 15.0 0.0 0.0 0.0 15.0" Properties=species:S:1:pos:R:3:forces:R:3 energy=        0.3285500106 pbc="T T T"
       O     0.0000000000     0.0000000000     0.0000000000      4.531982426      0.380368976     -0.000000000
       H     1.0684200000     0.0000000000     0.0000000000     -3.597281548     -0.830578762     -0.000000000
       H    -0.0172900000     0.9577300000     0.0000000000     -0.934700879      0.450209786     -0.000000000
