       3
Lattice="15.0 0.0 0.0 0.0 15.0 0.0 0.0 0.0 15.0" Properties=species:S:1:pos:R:3:forces:R:3 energy=        1.2491016179 pbc="T T T"
       O     0.0000000000     0.0000000000     0.0000000000      5.500108999     -8.216780356     -0.000000000
       H     1.1421100000     0.0000000000     0.0000000000     -4.635774927     -1.273419506     -0.000000000
       H     0.0763900000     0.8439200000     0.0000000000     -0.864334071      9.490199862     -0.000000000
