       3
Lattice="15.0 0.0 0.0 0.0 15.0 0.0 0.0 0.0 15.0" Properties=species:S:1:pos:R:3:forces:R:3 energy=        4.8527464081 pbc="T T T"
       O     0.0000000000     0.0000000000     0.0000000000     20.298664741    -24.538450976     -0.000000000
       H     1.4000000000     0.0000000000     0.0000000000     -6.324707783      1.095503608     -0.000000000
       H    -0.4244500000     0.6023100000     0.0000000000    -13.973956958     23.442947419     -0.000000000
