       3
Lattice="15.0 0.0 0.0 0.0 15.0 0.0 0.0 0.0 15.0" Properties=species:S:1:pos:R:3:forces:R:3 energy=        1.6497226551 pbc="T T T"
       O     0.0000000000     0.0000000000     0.0000000000      3.423650036      0.621813931     -0.000000000
       H     1.2526300000     0.0000000000     0.0000000000     -6.231195637      1.174055166     -0.000000000
       H    -0.5477100000     0.8741700000     0.0000000000      2.807545602     -1.795869046     -0.000000000
