       3
Lattice="15.0 0.0 0.0 0.0 15.0 0.0 0.0 0.0 15.0" Properties=species:S:1:pos:R:3:forces:R:3 energy=        2.2835474499 pbc="T T T"
       O     0.0000000000     0.0000000000     0.0000000000      6.171873883      6.165924604     -0.000000000
       H     1.1421100000     0.0000000000     0.0000000000     -4.729844952     -0.752250530     -0.000000000
       H     0.1909100000     1.3125100000     0.0000000000     -1.442028931     -5.413674075     -0.000000000
