       3
Lattice="15.0 0.0 0.0 0.0 15.0 0.0 0.0 0.0 15.0" Properties=species:S:1:pos:R:3:forces:R:3 energy=        0.7362626207 pbc="T T T"
       O     0.0000000000     0.0000000000     0.0000000000      5.484700730      3.158305739     -0.000000000
       H     1.1421100000     0.0000000000     0.0000000000     -4.924490871     -0.548459758     -0.000000000
       H    -0.0186200000     1.0314100000     0.0000000000     -0.560209859     -2.609845981     -0.000000000
