       3
Lattice="15.0 0.0 0.0 0.0 15.0 0.0 0.0 0.0 15.0" Properties=species:S:1:pos:R:3:forces:R:3 energy=        3.4268532589 pbc="T T T"
       O     0.0000000000     0.0000000000     0.0000000000      5.229972575      5.676995837     -0.000000000
       H     1.3631600000     0.0000000000     0.0000000000     -5.732568459      0.083335972     -0.000000000
       H    -0.0957000000     1.3228600000     0.0000000000      0.502595884     -5.760331758     -0.000000000
