       3
Lattice="15.0 0.0 0.0 0.0 15.0 0.0 0.0 0.0 15.0" Properties=species:S:1:pos:R:3:forces:R:3 energy=        3.5484789107 pbc="T T T"
       O     0.0000000000     0.0000000000     0.0000000000      2.097508132      3.558555162     -0.000000000
       H     1.3263200000     0.0000000000     0.0000000000     -5.864093920      1.059156986     -0.000000000
       H    -0.6423100000     1.1604100000     0.0000000000      3.766585788     -4.617712148     -0.000000000
