       3
Lattice="15.0 0.0 0.0 0.0 15.0 0.0 0.0 0.0 15.0" Properties=species:S:1:pos:R:3:forces:R:3 energy=        1.8798755973 pbc="T T T"
       O     0.0000000000     0.0000000000     0.0000000000      3.453518401      0.590887402     -0.000000000
       H     1.2894700000     0.0000000000     0.0000000000     -6.249780248      1.154363335     -0.000000000
       H    -0.5477100000     0.8741700000     0.0000000000      2.796261796     -1.745250737     -0.000000000
