       3
Lattice="15.0 0.0 0.0 0.0 15.0 0.0 0.0 0.0 15.0" Properties=species:S:1:pos:R:3:forces:R:3 energy=        2.1377940038 pbc="T T T"
       O     0.0000000000     0.0000000000     0.0000000000      3.275900494      6.253315311     -0.000000000
       H     0.9947400000     0.0000000000     0.0000000000     -0.946982736     -1.440712526     -0.000000000
       H     0.3409100000     1.3198400000     0.0000000000     -2.328917759     -4.812602785     -0.000000000
