       3
Lattice="15.0 0.0 0.0 0.0 15.0 0.0 0.0 0.0 15.0" Properties=species:S:1:pos:R:3:forces:R:3 energy=        4.2026590413 pbc="T T T"
       O     0.0000000000     0.0000000000     0.0000000000    -16.328062129      6.487055181     -0.000000000
       H     0.7736800000     0.0000000000     0.0000000000     20.484908548     -4.277261830     -0.000000000
       H     0.6631600000     1.1486300000     0.0000000000     -4.156846419     -2.209793351     -0.000000000
