       3
Lattice="15.0 0.0 0.0 0.0 15.0 0.0 0.0 0.0 15.0" Properties=species:S:1:pos:R:3:forces:R:3 energy=        1.4565245275 pbc="T T T"
       O     0.0000000000     0.0000000000     0.0000000000    -14.456872220     -2.477457452     -0.000000000
       H     0.8105300000     0.0000000000     0.0000000000     12.613132861      1.868144487     -0.000000000
       H    -0.7729100000     0.5658300000     0.0000000000      1.843739307      0.609313016     -0.000000000
