       3
Lattice="15.0 0.0 0.0 0.0 15.0 0.0 0.0 0.0 15.0" Properties=species:S:1:pos:R:3:forces:R:3 energy=        5.2023277751 pbc="T T T"
       O     0.0000000000     0.0000000000     0.0000000000      2.151445582    -36.153441678     -0.000000000
       H     1.2894700000     0.0000000000     0.0000000000     -5.435911916     -1.150522928     -0.000000000
       H     0.1007600000     0.6927100000     0.0000000000      3.284466334     37.303964606     -0.000000000
