       3
Lattice="15.0 0.0 0.0 0.0 15.0 0.0 0.0 0.0 15.0" Properties=species:S:1:pos:R:3:forces:R:3 energy=        5.5474196172 pbc="T T T"
       O     0.0000000000     0.0000000000     0.0000000000     -8.831691283    -32.951547698     -0.000000000
       H     1.1789500000     0.0000000000     0.0000000000     -3.322160216     -3.302129461     -0.000000000
       H     0.3166700000     0.6242800000     0.0000000000     12.153851499     36.253677160     -0.000000000
