       3
Lattice="15.0 0.0 0.0 0.0 15.0 0.0 0.0 0.0 15.0" Properties=species:S:1:pos:R:3:forces:R:3 energy=        3.4826124828 pbc="T T T"
       O     0.0000000000     0.0000000000     0.0000000000      7.969556175      5.494857929     -0.000000000
       H     1.4000000000     0.0000000000     0.0000000000     -5.115978703     -0.952707659     -0.000000000
       H     0.4425600000     1.1718500000     0.0000000000     -2.853577472     -4.542150270     -0.000000000
