       3
Lattice="15.0 0.0 0.0 0.0 15.0 0.0 0.0 0.0 15.0" Properties=species:S:1:pos:R:3:forces:R:3 energy=        3.2572077043 pbc="T T T"
       O     0.0000000000     0.0000000000     0.0000000000    -14.896411769     -6.121969981     -0.000000000
       H     0.8105300000     0.0000000000     0.0000000000     15.827282525     -7.139988577     -0.000000000
       H     0.3833300000     0.7557100000     0.0000000000     -0.930870807     13.261958558     -0.000000000
