       3
Lattice="15.0 0.0 0.0 0.0 15.0 0.0 0.0 0.0 15.0" Properties=species:S:1:pos:R:3:forces:R:3 energy=        2.3487395851 pbc="T T T"
       O     0.0000000000     0.0000000000     0.0000000000     -7.556272898      4.888538810     -0.000000000
       H     0.8842100000     0.0000000000     0.0000000000      5.411120762      0.724121414     -0.000000000
       H    -0.3988300000     1.3419900000     0.0000000000      2.145152136     -5.612660275     -0.000000000
