       3
Lattice="15.0 0.0 0.0 0.0 15.0 0.0 0.0 0.0 15.0" Properties=species:S:1:pos:R:3:forces:R:3 energy=        0.9271350864 pbc="T T T"
       O     0.0000000000     0.0000000000     0.0000000000      0.837767724      4.783083216     -0.000000000
       H     1.0315800000     0.0000000000     0.0000000000     -2.898465817      0.528248820     -0.000000000
       H    -0.3358600000     1.1301000000     0.0000000000      2.060698042     -5.311332036     -0.000000000
