       3
Lattice="15.0 0.0 0.0 0.0 15.0 0.0 0.0 0.0 15.0" Properties=species:S:1:pos:R:3:forces:R:3 energy=        3.1525985622 pbc="T T T"
       O     0.0000000000     0.0000000000     0.0000000000    -20.925953273      5.897602044     -0.000000000
       H     0.7736800000     0.0000000000     0.0000000000     19.748897936      0.129606955     -0.000000000
       H    -0.2381700000     1.3047600000     0.0000000000      1.177055337     -6.027208998     -0.000000000
