       3
Lattice="15.0 0.0 0.0 0.0 15.0 0.0 0.0 0.0 15.0" Properties=species:S:1:pos:R:3:forces:R:3 energy=        1.1237854791 pbc="T T T"
       O     0.0000000000     0.0000000000     0.0000000000      2.171874909      1.566306809     -0.000000000
       H     1.1421100000     0.0000000000     0.0000000000     -5.505253213      1.245766610     -0.000000000
       H    -0.5672700000     0.9053900000     0.0000000000      3.333378304     -2.812073419     -0.000000000
