       3
Lattice="15.0 0.0 0.0 0.0 15.0 0.0 0.0 0.0 15.0" Properties=species:S:1:pos:R:3:forces:R:3 energy=        1.5496419774 pbc="T T T"
       O     0.0000000000     0.0000000000     0.0000000000     -1.976200394      6.492404312     -0.000000000
       H     0.9210500000     0.0000000000     0.0000000000      2.753677417     -0.800067209     -0.000000000
       H     0.0465500000     1.2886300000     0.0000000000     -0.777477023     -5.692337103     -0.000000000
