       3
Lattice="15.0 0.0 0.0 0.0 15.0 0.0 0.0 0.0 15.0" Properties=species:S:1:pos:R:3:forces:R:3 energy=        1.4135191714 pbc="T T T"
       O     0.0000000000     0.0000000000     0.0000000000    -13.220601881      2.082662472     -0.000000000
       H     0.8473700000     0.0000000000     0.0000000000      8.516039576      1.765230429     -0.000000000
       H    -0.7074800000     0.8966000000     0.0000000000      4.704562305     -3.847892902     -0.000000000
