       3
Lattice="15.0 0.0 0.0 0.0 15.0 0.0 0.0 0.0 15.0" Properties=species:S:1:pos:R:3:forces:R:3 energy=        1.7265291050 pbc="T T T"
       O     0.0000000000     0.0000000000     0.0000000000    -11.530637396      5.980608811     -0.000000000
       H     0.8105300000     0.0000000000     0.0000000000     14.256133297     -2.783251596     -0.000000000
       H     0.2180700000     1.0835300000     0.0000000000     -2.725495953     -3.197357215     -0.000000000
