       3
Lattice="15.0 0.0 0.0 0.0 15.0 0.0 0.0 0.0 15.0" Properties=species:S:1:pos:R:3:forces:R:3 energy=        2.0040723876 pbc="T T T"
       O     0.0000000000     0.0000000000     0.0000000000      7.827502452      3.418897298     -0.000000000
       H     1.2157900000     0.0000000000     0.0000000000     -4.355982259     -2.259983776     -0.000000000
       H     0.4833300000     0.9528400000     0.0000000000     -3.471520245     -1.158913521     -0.000000000
