       3
Lattice="15.0 0.0 0.0 0.0 15.0 0.0 0.0 0.0 15.0" Properties=species:S:1:pos:R:3:forces:R:3 energy=        1.2723141927 pbc="T T T"
       O     0.0000000000     0.0000000000     0.0000000000     -3.052245061      6.107339883     -0.000000000
       H     0.8842100000     0.0000000000     0.0000000000      6.033456833     -2.593210782     -0.000000000
       H     0.2856300000     1.1058200000     0.0000000000     -2.981211772     -3.514129101     -0.000000000
