       3
Lattice="15.0 0.0 0.0 0.0 15.0 0.0 0.0 0.0 15.0" Properties=species:S:1:pos:R:3:forces:R:3 energy=        3.2926055977 pbc="T T T"
       O     0.0000000000     0.0000000000     0.0000000000      4.888434783    -21.039999493     -0.000000000
       H     0.8105300000     0.0000000000     0.0000000000     12.367639959      1.350030292     -0.000000000
       H    -0.5163000000     0.5257100000     0.0000000000    -17.256074794     19.689969201     -0.000000000
