       3
Lattice="15.0 0.0 0.0 0.0 15.0 0.0 0.0 0.0 15.0" Properties=species:S:1:pos:R:3:forces:R:3 energy=        1.1163142339 pbc="T T T"
       O     0.0000000000     0.0000000000     0.0000000000    -12.218265634      1.403809156     -0.000000000
       H     0.8105300000     0.0000000000     0.0000000000     14.037969023     -2.182361981     -0.000000000
       H     0.0345800000     0.9572700000     0.0000000000     -1.819703389      0.778552825     -0.000000000
