       3
Lattice="15.0 0.0 0.0 0.0 15.0 0.0 0.0 0.0 15.0" Properties=species:S:1:pos:R:3:forces:R:3 energy=        2.7287676495 pbc="T T T"
       O     0.0000000000     0.0000000000     0.0000000000      6.182024346     -0.427378482     -0.000000000
       H     1.4000000000     0.0000000000     0.0000000000     -4.498275094     -1.679551821     -0.000000000
       H     0.4333300000     0.8542700000     0.0000000000     -1.683749252      2.106930355     -0.000000000
