       3
Lattice="15.0 0.0 0.0 0.0 15.0 0.0 0.0 0.0 15.0" Properties=species:S:1:pos:R:3:forces:R:3 energy=        2.1761475380 pbc="T T T"
       O     0.0000000000     0.0000000000     0.0000000000      4.190876271     -0.304418501     -0.000000000
       H     1.3631600000     0.0000000000     0.0000000000     -6.120640514      0.989833430     -0.000000000
       H    -0.4817400000     0.8703100000     0.0000000000      1.929764243     -0.685414929     -0.000000000
