       3
Lattice="15.0 0.0 0.0 0.0 15.0 0.0 0.0 0.0 15.0" Properties=species:S:1:pos:R:3:forces:R:3 energy=        3.2434359320 pbc="T T T"
       O     0.0000000000     0.0000000000     0.0000000000      6.516547702      5.953254523     -0.000000000
       H     1.3263200000     0.0000000000     0.0000000000     -5.666074455     -0.341061932     -0.000000000
       H     0.1195700000     1.3209200000     0.0000000000     -0.850473299     -5.612192592     -0.000000000
