       3
Lattice="15.0 0.0 0.0 0.0 15.0 0.0 0.0 0.0 15.0" Properties=species:S:1:pos:R:3:forces:R:3 energy=        1.1265559410 pbc="T T T"
       O     0.0000000000     0.0000000000     0.0000000000     -9.333781945     -0.083365643     -0.000000000
       H     0.8842100000     0.0000000000     0.0000000000      4.516496356      1.946139195     -0.000000000
       H    -0.8266600000     0.6768700000     0.0000000000      4.817285589     -1.862773553     -0.000000000
