       3
Lattice="15.0 0.0 0.0 0.0 15.0 0.0 0.0 0.0 15.0" Properties=species:S:1:pos:R:3:forces:R:3 energy=        2.6854019439 pbc="T T T"
       O     0.0000000000     0.0000000000     0.0000000000      2.870763916      2.705614426     -0.000000000
       H     1.4000000000     0.0000000000     0.0000000000     -5.852278616      0.882443439     -0.000000000
       H    -0.4821200000     0.9945600000     0.0000000000      2.981514700     -3.588057865     -0.000000000
