       3
Lattice="15.0 0.0 0.0 0.0 15.0 0.0 0.0 0.0 15.0" Properties=species:S:1:pos:R:3:forces:R:3 energy=        3.1282776376 pbc="T T T"
       O     0.0000000000     0.0000000000     0.0000000000      1.766218196      3.384593572     -0.000000000
       H     1.1789500000     0.0000000000     0.0000000000     -5.437213204      1.185693682     -0.000000000
       H    -0.6780000000     1.2248800000     0.0000000000      3.670995007     -4.570287305     -0.000000000
