       3
Lattice="15.0 0.0 0.0 0.0 15.0 0.0 0.0 0.0 15.0" Properties=species:S:1:pos:R:3:forces:R:3 energy=        3.5945026217 pbc="T T T"
       O     0.0000000000     0.0000000000     0.0000000000    -38.541945089      0.375766750     -0.000000000
       H     0.7000000000     0.0000000000     0.0000000000     36.495946463      1.242692957     -0.000000000
       H    -0.5281500000     0.8429500000     0.0000000000      2.045998627     -1.618459708     -0.000000000
