       3
Lattice="15.0 0.0 0.0 0.0 15.0 0.0 0.0 0.0 15.0" Properties=species:S:1:pos:R:3:forces:R:3 energy=        2.1940273751 pbc="T T T"
       O     0.0000000000     0.0000000000     0.0000000000    -18.042305296      2.862157247     -0.000000000
       H     0.8105300000     0.0000000000     0.0000000000     13.350776844      1.759254412     -0.000000000
       H    -0.7003400000     0.9938100000     0.0000000000      4.691528452     -4.621411658     -0.000000000
