       3
Lattice="15.0 0.0 0.0 0.0 15.0 0.0 0.0 0.0 15.0" Properties=species:S:1:pos:R:3:forces:R:3 energy=        1.5426351217 pbc="T T T"
       O     0.0000000000     0.0000000000     0.0000000000    -11.854638456      4.495455621     -0.000000000
       H     0.8473700000     0.0000000000     0.0000000000      8.838225025      0.961860740     -0.000000000
       H    -0.4703300000     1.1211300000     0.0000000000      3.016413379     -5.457316360     -0.000000000
