       3
Lattice="15.0 0.0 0.0 0.0 15.0 0.0 0.0 0.0 15.0" Properties=species:S:1:pos:R:3:forces:R:3 energy=        1.1429545263 pbc="T T T"
       O     0.0000000000     0.0000000000     0.0000000000      6.354049895      4.992845069     -0.000000000
       H     1.1421100000     0.0000000000     0.0000000000     -4.639011639     -1.100192634     -0.000000000
       H     0.1590900000     1.0937500000     0.0000000000     -1.715038255     -3.892652384     -0.000000000
