       3
Lattice="15.0 0.0 0.0 0.0 15.0 0.0 0.0 0.0 15.0" Properties=species:S:1:pos:R:3:forces:R:3 energy=        1.4178672216 pbc="T T T"
       O     0.0000000000     0.0000000000     0.0000000000      3.952628021     -7.881399948     -0.000000000
       H     1.1052600000     0.0000000000     0.0000000000     -3.514149001     -2.272339784     -0.000000000
       H     0.2119200000     0.8204400000     0.0000000000     -0.438479020     10.153739732     -0.000000000
