       3
Lattice="15.0 0.0 0.0 0.0 15.0 0.0 0.0 0.0 15.0" Properties=species:S:1:pos:R:3:forces:R:3 energy=        5.4033136899 pbc="T T T"
       O     0.0000000000     0.0000000000     0.0000000000    -35.578002654      7.218895873     -0.000000000
       H     0.7000000000     0.0000000000     0.0000000000     37.387290088     -1.957509442     -0.000000000
       H     0.1909100000     1.3125100000     0.0000000000     -1.809287486     -5.261386483     -0.000000000
