       3
Lattice="15.0 0.0 0.0 0.0 15.0 0.0 0.0 0.0 15.0" Properties=species:S:1:pos:R:3:forces:R:3 energy=        0.3839225307 pbc="T T T"
       O     0.0000000000     0.0000000000     0.0000000000      1.090108866      0.942222953     -0.000000000
       H     0.9578900000     0.0000000000     0.0000000000      0.898495410     -2.140369110     -0.000000000
       H     0.1378800000     0.9479200000     0.0000000000     -1.988604327      1.198146157     -0.000000000
