       3
Lattice="15.0 0.0 0.0 0.0 15.0 0.0 0.0 0.0 15.0" Properties=species:S:1:pos:R:3:forces:R:3 energy=        3.4787532225 pbc="T T T"
       O     0.0000000000     0.0000000000     0.0000000000      6.847828999      5.886695419     -0.000000000
       H     1.3263200000     0.0000000000     0.0000000000     -5.615594471     -0.448811671     -0.000000000
       H     0.1962100000     1.3489600000     0.0000000000     -1.232234528     -5.437883748     -0.000000000
