       3
Lattice="15.0 0.0 0.0 0.0 15.0 0.0 0.0 0.0 15.0" Properties=species:S:1:pos:R:3:forces:R:3 energy=        1.9271803605 pbc="T T T"
       O     0.0000000000     0.0000000000     0.0000000000      1.535160657     -4.229590830     -0.000000000
       H     1.0315800000     0.0000000000     0.0000000000     -0.388053852     -4.662394034     -0.000000000
       H     0.4421100000     0.7657500000     0.0000000000     -1.147106804      8.891984864     -0.000000000
