       3
Lattice="15.0 0.0 0.0 0.0 15.0 0.0 0.0 0.0 15.0" Properties=species:S:1:pos:R:3:forces:R:3 energy=        2.2082052773 pbc="T T T"
       O     0.0000000000     0.0000000000     0.0000000000      2.510700289      6.159662680     -0.000000000
       H     0.9947400000     0.0000000000     0.0000000000     -1.096443758     -0.905293152     -0.000000000
       H     0.2015100000     1.3854200000     0.0000000000     -1.414256530     -5.254369579     -0.000000000
