       3
Lattice="15.0 0.0 0.0 0.0 15.0 0.0 0.0 0.0 15.0" Properties=species:S:1:pos:R:3:forces:R:3 energy=        1.6547720761 pbc="T T T"
       O     0.0000000000     0.0000000000     0.0000000000      4.885101552     -2.740302840     -0.000000000
       H     1.2157900000     0.0000000000     0.0000000000     -6.402735453      1.524364435     -0.000000000
       H    -0.6711900000     0.6834200000     0.0000000000      1.517633901      1.215938405     -0.000000000
