       3
Lattice="15.0 0.0 0.0 0.0 15.0 0.0 0.0 0.0 15.0" Properties=species:S:1:pos:R:3:forces:R:3 energy=        2.1145389547 pbc="T T T"
       O     0.0000000000     0.0000000000     0.0000000000      2.457941073      4.292714939     -0.000000000
       H     1.1789500000     0.0000000000     0.0000000000     -5.557809723      0.901994220     -0.000000000
       H    -0.4845800000     1.1551000000     0.0000000000      3.099868650     -5.194709159     -0.000000000
