       3
Lattice="15.0 0.0 0.0 0.0 15.0 0.0 0.0 0.0 15.0" Properties=species:S:1:pos:R:3:forces:R:3 energy=        4.4634162920 pbc="T T T"
       O     0.0000000000     0.0000000000     0.0000000000     10.676527578    -27.153519334     -0.000000000
       H     1.4000000000     0.0000000000     0.0000000000     -5.989105231      0.127407272     -0.000000000
       H    -0.1323200000     0.7248600000     0.0000000000     -4.687422346     27.026112061     -0.000000000
