       3
Lattice="15.0 0.0 0.0 0.0 15.0 0.0 0.0 0.0 15.0" Properties=species:S:1:pos:R:3:forces:R:3 energy=        1.4910635098 pbc="T T T"
       O     0.0000000000     0.0000000000     0.0000000000      6.424510445     -0.011426965     -0.000000000
       H     1.2894700000     0.0000000000     0.0000000000     -5.717711949     -0.539483261     -0.000000000
       H     0.0345800000     0.9572700000     0.0000000000     -0.706798495      0.550910226     -0.000000000
