       3
Lattice="15.0 0.0 0.0 0.0 15.0 0.0 0.0 0.0 15.0" Properties=species:S:1:pos:R:3:forces:R:3 energy=        2.6284492559 pbc="T T T"
       O     0.0000000000     0.0000000000     0.0000000000      3.875291207      5.182099949     -0.000000000
       H     1.2157900000     0.0000000000     0.0000000000     -5.677080067      0.476133820     -0.000000000
       H    -0.3084600000     1.2899500000     0.0000000000      1.801788860     -5.658233820     -0.000000000
