       3
Lattice="15.0 0.0 0.0 0.0 15.0 0.0 0.0 0.0 15.0" Properties=species:S:1:pos:R:3:forces:R:3 energy=        3.1584788475 pbc="T T T"
       O     0.0000000000     0.0000000000     0.0000000000      1.173831583      2.328788278     -0.000000000
       H     1.2894700000     0.0000000000     0.0000000000     -5.977440285      1.412153830     -0.000000000
       H    -0.7759400000     0.9833600000     0.0000000000      4.803608702     -3.740942107     -0.000000000
