       3
Lattice="15.0 0.0 0.0 0.0 15.0 0.0 0.0 0.0 15.0" Properties=species:S:1:pos:R:3:forces:R:3 energy=        1.8637659724 pbc="T T T"
       O     0.0000000000     0.0000000000     0.0000000000      2.755773741      2.439545849     -0.000000000
       H     1.2526300000     0.0000000000     0.0000000000     -6.111499313      1.084627837     -0.000000000
       H    -0.5352600000     0.9670000000     0.0000000000      3.355725520     -3.524173686     -0.000000000
