       3
Lattice="15.0 0.0 0.0 0.0 15.0 0.0 0.0 0.0 15.0" Properties=species:S:1:pos:R:3:forces:R:3 energy=        3.6874155155 pbc="T T T"
       O     0.0000000000     0.0000000000     0.0000000000      2.554100685      3.760212072     -0.000000000
       H     1.2894700000     0.0000000000     0.0000000000     -5.837207059      0.968182005     -0.000000000
       H    -0.6106900000     1.2597900000     0.0000000000      3.283106374     -4.728394077     -0.000000000
