       3
Lattice="15.0 0.0 0.0 0.0 15.0 0.0 0.0 0.0 15.0" Properties=species:S:1:pos:R:3:forces:R:3 energy=        1.6373879161 pbc="T T T"
       O     0.0000000000     0.0000000000     0.0000000000      7.215928201      4.059856701     -0.000000000
       H     1.2526300000     0.0000000000     0.0000000000     -5.337228868     -1.067323327     -0.000000000
       H     0.2108000000     1.0474200000     0.0000000000     -1.878699333     -2.992533373     -0.000000000
