       3
Lattice="15.0 0.0 0.0 0.0 15.0 0.0 0.0 0.0 15.0" Properties=species:S:1:pos:R:3:forces:R:3 energy=        2.0891770313 pbc="T T T"
       O     0.0000000000     0.0000000000     0.0000000000    -14.831280656      5.946326220     -0.000000000
       H     0.8105300000     0.0000000000     0.0000000000     13.729889321      0.018971973     -0.000000000
       H    -0.2249400000     1.2322700000     0.0000000000      1.101391334     -5.965298193     -0.000000000
