       3
Lattice="15.0 0.0 0.0 0.0 15.0 0.0 0.0 0.0 15.0" Properties=species:S:1:pos:R:3:forces:R:3 energy=        2.8326251151 pbc="T T T"
       O     0.0000000000     0.0000000000     0.0000000000      7.721341913      5.871293269     -0.000000000
       H     1.2157900000     0.0000000000     0.0000000000     -5.137161518     -1.121946183     -0.000000000
       H     0.4007300000     1.2643300000     0.0000000000     -2.584180395     -4.749347087     -0.000000000
