       3
Lattice="15.0 0.0 0.0 0.0 15.0 0.0 0.0 0.0 15.0" Properties=species:S:1:pos:R:3:forces:R:3 energy=        3.6004190410 pbc="T T T"
       O     0.0000000000     0.0000000000     0.0000000000      7.522877595    -19.638814508     -0.000000000
       H     1.4000000000     0.0000000000     0.0000000000     -5.815857277     -0.151669036     -0.000000000
       H    -0.0558300000     0.7716600000     0.0000000000     -1.707020369     19.790483544     -0.000000000
