       3
Lattice="15.0 0.0 0.0 0.0 15.0 0.0 0.0 0.0 15.0" Properties=species:S:1:pos:R:3:forces:R:3 energy=        1.9267423606 pbc="T T T"
       O     0.0000000000     0.0000000000     0.0000000000     -7.737081391      1.617214676     -0.000000000
       H     0.9210500000     0.0000000000     0.0000000000      2.086633543      2.018256873     -0.000000000
       H    -0.8777100000     0.8937000000     0.0000000000      5.650447848     -3.635471549     -0.000000000
