       3
Lattice="15.0 0.0 0.0 0.0 15.0 0.0 0.0 0.0 15.0" Properties=species:S:1:pos:R:3:forces:R:3 energy=        0.6236259892 pbc="T T T"
       O     0.0000000000     0.0000000000     0.0000000000     -8.011662894      0.452970381     -0.000000000
       H     0.8842100000     0.0000000000     0.0000000000      4.681602806      1.580421710     -0.000000000
       H    -0.6390100000     0.8098300000     0.0000000000      3.330060088     -2.033392091     -0.000000000
