       3
Lattice="15.0 0.0 0.0 0.0 15.0 0.0 0.0 0.0 15.0" Properties=species:S:1:pos:R:3:forces:R:3 energy=        6.4180368264 pbc="T T T"
       O     0.0000000000     0.0000000000     0.0000000000    -35.773232317    -23.636972983     -0.000000000
       H     0.7000000000     0.0000000000     0.0000000000     37.627156232     -4.625673007     -0.000000000
       H     0.0664300000     0.7338400000     0.0000000000     -1.853923914     28.262645938     -0.000000000
