       3
Lattice="15.0 0.0 0.0 0.0 15.0 0.0 0.0 0.0 15.0" Properties=species:S:1:pos:R:3:forces:R:3 energy=        2.3218856370 pbc="T T T"
       O     0.0000000000     0.0000000000     0.0000000000     -0.644513646      2.770895949     -0.000000000
       H     1.0684200000     0.0000000000     0.0000000000     -3.926057252      1.548892977     -0.000000000
       H    -0.7640100000     1.0841600000     0.0000000000      4.570570898     -4.319788925     -0.000000000
