       3
Lattice="15.0 0.0 0.0 0.0 15.0 0.0 0.0 0.0 15.0" Properties=species:S:1:pos:R:3:forces:R:3 energy=        1.5478936840 pbc="T T T"
       O     0.0000000000     0.0000000000     0.0000000000      6.132899746      2.897681116     -0.000000000
       H     1.2894700000     0.0000000000     0.0000000000     -5.804039247     -0.300548783     -0.000000000
       H    -0.0186200000     1.0314100000     0.0000000000     -0.328860499     -2.597132333     -0.000000000
