       3
Lattice="15.0 0.0 0.0 0.0 15.0 0.0 0.0 0.0 15.0" Properties=species:S:1:pos:R:3:forces:R:3 energy=        1.0906494260 pbc="T T T"
       O     0.0000000000     0.0000000000     0.0000000000     -9.259244086      2.456178735     -0.000000000
       H     0.8842100000     0.0000000000     0.0000000000      4.900482875      1.590921483     -0.000000000
       H    -0.6579000000     0.9335900000     0.0000000000      4.358761211     -4.047100166     -0.000000000
