       3
Lattice="15.0 0.0 0.0 0.0 15.0 0.0 0.0 0.0 15.0" Properties=species:S:1:pos:R:3:forces:R:3 energy=        2.3276060227 pbc="T T T"
       O     0.0000000000     0.0000000000     0.0000000000     15.664759675    -17.837516215     -0.000000000
       H     1.1421100000     0.0000000000     0.0000000000     -5.973200483      1.146575717     -0.000000000
       H    -0.4456700000     0.6324200000     0.0000000000     -9.691559192     16.690940498     -0.000000000
