       3
Lattice="15.0 0.0 0.0 0.0 15.0 0.0 0.0 0.0 15.0" Properties=species:S:1:pos:R:3:forces:R:3 energy=        2.5614372368 pbc="T T T"
       O     0.0000000000     0.0000000000     0.0000000000    -28.747707662      3.608814596     -0.000000000
       H     0.7368400000     0.0000000000     0.0000000000     27.041615924      0.382881562     -0.000000000
       H    -0.3593700000     1.0061700000     0.0000000000      1.706091738     -3.991696158     -0.000000000
