       3
Lattice="15.0 0.0 0.0 0.0 15.0 0.0 0.0 0.0 15.0" Properties=species:S:1:pos:R:3:forces:R:3 energy=        2.2410123964 pbc="T T T"
       O     0.0000000000     0.0000000000     0.0000000000    -12.037076515      4.467255953     -0.000000000
       H     0.8473700000     0.0000000000     0.0000000000      8.948761379      1.091608951     -0.000000000
       H    -0.5130900000     1.2230600000     0.0000000000      3.088315136     -5.558864904     -0.000000000
