       3
Lattice="15.0 0.0 0.0 0.0 15.0 0.0 0.0 0.0 15.0" Properties=species:S:1:pos:R:3:forces:R:3 energy=        4.1326249475 pbc="T T T"
       O     0.0000000000     0.0000000000     0.0000000000    -17.962377117    -15.776657788     -0.000000000
       H     0.8105300000     0.0000000000     0.0000000000     15.853839153     -6.885417311     -0.000000000
       H     0.3121300000     0.7079200000     0.0000000000      2.108537964     22.662075099     -0.000000000
