       3
Lattice="15.0 0.0 0.0 0.0 15.0 0.0 0.0 0.0 15.0" Properties=species:S:1:pos:R:3:forces:R:3 energy=        2.6002326541 pbc="T T T"
       O     0.0000000000     0.0000000000     0.0000000000     12.278503421    -13.369679809     -0.000000000
       H     1.2894700000     0.0000000000     0.0000000000     -6.539100453      1.053255375     -0.000000000
       H    -0.4303400000     0.6868500000     0.0000000000     -5.739402968     12.316424434     -0.000000000
