       3
Lattice="15.0 0.0 0.0 0.0 15.0 0.0 0.0 0.0 15.0" Properties=species:S:1:pos:R:3:forces:R:3 energy=        2.2851850556 pbc="T T T"
       O     0.0000000000     0.0000000000     0.0000000000     -0.178857899      0.574268298     -0.000000000
       H     1.1421100000     0.0000000000     0.0000000000     -5.550625235      1.828104884     -0.000000000
       H    -0.9121800000     0.7468900000     0.0000000000      5.729483134     -2.402373182     -0.000000000
