       3
Lattice="15.0 0.0 0.0 0.0 15.0 0.0 0.0 0.0 15.0" Properties=species:S:1:pos:R:3:forces:R:3 energy=        3.3897850382 pbc="T T T"
       O     0.0000000000     0.0000000000     0.0000000000      8.006817236      4.997151978     -0.000000000
       H     1.1789500000     0.0000000000     0.0000000000     -4.455449545     -1.686635163     -0.000000000
       H     0.7000000000     1.2124400000     0.0000000000     -3.551367743     -3.310516867     -0.000000000
