       3
Lattice="15.0 0.0 0.0 0.0 15.0 0.0 0.0 0.0 15.0" Properties=species:S:1:pos:R:3:forces:R:3 energy=        2.6528756409 pbc="T T T"
       O     0.0000000000     0.0000000000     0.0000000000      5.998862521      5.778728575     -0.000000000
       H     1.0684200000     0.0000000000     0.0000000000     -3.131783049     -1.562784551     -0.000000000
       H     0.4946300000     1.3097100000     0.0000000000     -2.867079472     -4.215944025     -0.000000000
