       3
Lattice="15.0 0.0 0.0 0.0 15.0 0.0 0.0 0.0 15.0" Properties=species:S:1:pos:R:3:forces:R:3 energy=        3.3076867546 pbc="T T T"
       O     0.0000000000     0.0000000000     0.0000000000      7.101439598      5.834693084     -0.000000000
       H     1.4000000000     0.0000000000     0.0000000000     -5.383614471     -0.578966940     -0.000000000
       H     0.2471500000     1.2280100000     0.0000000000     -1.717825127     -5.255726145     -0.000000000
