       3
Lattice="15.0 0.0 0.0 0.0 15.0 0.0 0.0 0.0 15.0" Properties=species:S:1:pos:R:3:forces:R:3 energy=        3.4865218174 pbc="T T T"
       O     0.0000000000     0.0000000000     0.0000000000      0.279967093      1.082014823     -0.000000000
       H     1.2157900000     0.0000000000     0.0000000000     -5.782211342      1.759762153     -0.000000000
       H    -0.9792100000     0.8945800000     0.0000000000      5.502244249     -2.841776977     -0.000000000
