       3
Lattice="15.0 0.0 0.0 0.0 15.0 0.0 0.0 0.0 15.0" Properties=species:S:1:pos:R:3:forces:R:3 energy=        3.6275846601 pbc="T T T"
       O     0.0000000000     0.0000000000     0.0000000000      2.767129383      4.261835255     -0.000000000
       H     1.3631600000     0.0000000000     0.0000000000     -5.793826769      0.807529582     -0.000000000
       H    -0.5130900000     1.2230600000     0.0000000000      3.026697334     -5.069364838     -0.000000000
