       3
Lattice="15.0 0.0 0.0 0.0 15.0 0.0 0.0 0.0 15.0" Properties=species:S:1:pos:R:3:forces:R:3 energy=        2.0218932522 pbc="T T T"
       O     0.0000000000     0.0000000000     0.0000000000    -18.636341427     -3.694352359     -0.000000000
       H     0.7736800000     0.0000000000     0.0000000000     18.534134834      1.846706207     -0.000000000
       H    -0.7431900000     0.5440700000     0.0000000000      0.102206593      1.847646100     -0.000000000
