       3
Lattice="15.0 0.0 0.0 0.0 15.0 0.0 0.0 0.0 15.0" Properties=species:S:1:pos:R:3:forces:R:3 energy=        4.4294916176 pbc="T T T"
       O     0.0000000000     0.0000000000     0.0000000000    -34.626024468      6.569308050     -0.000000000
       H     0.7000000000     0.0000000000     0.0000000000     37.505903618     -3.502306186     -0.000000000
       H     0.2180700000     1.0835300000     0.0000000000     -2.879879149     -3.067001812     -0.000000000
