       3
Lattice="15.0 0.0 0.0 0.0 15.0 0.0 0.0 0.0 15.0" Properties=species:S:1:pos:R:3:forces:R:3 energy=        1.9036118988 pbc="T T T"
       O     0.0000000000     0.0000000000     0.0000000000      1.079196944      3.082910520     -0.000000000
       H     1.1421100000     0.0000000000     0.0000000000     -5.304629424      1.322029679     -0.000000000
       H    -0.6455100000     1.0302700000     0.0000000000      4.225432480     -4.404940251     -0.000000000
