       3
Lattice="15.0 0.0 0.0 0.0 15.0 0.0 0.0 0.0 15.0" Properties=species:S:1:pos:R:3:forces:R:3 energy=        2.0239158962 pbc="T T T"
       O     0.0000000000     0.0000000000     0.0000000000      5.956974654      4.556428230     -0.000000000
       H     1.3263200000     0.0000000000     0.0000000000     -5.794089587     -0.201223987     -0.000000000
       H    -0.0199500000     1.1050800000     0.0000000000     -0.162885067     -4.355204242     -0.000000000
