       3
Lattice="15.0 0.0 0.0 0.0 15.0 0.0 0.0 0.0 15.0" Properties=species:S:1:pos:R:3:forces:R:3 energy=        5.5933236852 pbc="T T T"
       O     0.0000000000     0.0000000000     0.0000000000    -43.210208132      0.425173966     -0.000000000
       H     0.7000000000     0.0000000000     0.0000000000     36.592568359      2.611080729     -0.000000000
       H    -1.0107300000     0.7399300000     0.0000000000      6.617639772     -3.036254695     -0.000000000
