       3
Lattice="15.0 0.0 0.0 0.0 15.0 0.0 0.0 0.0 15.0" Properties=species:S:1:pos:R:3:forces:R:3 energy=        2.6023994097 pbc="T T T"
       O     0.0000000000     0.0000000000     0.0000000000      0.585061588      0.880970454     -0.000000000
       H     1.2157900000     0.0000000000     0.0000000000     -6.039931028      1.711627634     -0.000000000
       H    -0.8704100000     0.7951800000     0.0000000000      5.454869440     -2.592598088     -0.000000000
