       3
Lattice="15.0 0.0 0.0 0.0 15.0 0.0 0.0 0.0 15.0" Properties=species:S:1:pos:R:3:forces:R:3 energy=        2.3832714952 pbc="T T T"
       O     0.0000000000     0.0000000000     0.0000000000      5.858196578      5.444928522     -0.000000000
       H     1.3263200000     0.0000000000     0.0000000000     -5.782183266     -0.152470655     -0.000000000
       H    -0.0212800000     1.1787600000     0.0000000000     -0.076013261     -5.292457868     -0.000000000
