       3
Lattice="15.0 0.0 0.0 0.0 15.0 0.0 0.0 0.0 15.0" Properties=species:S:1:pos:R:3:forces:R:3 energy=        1.0955815904 pbc="T T T"
       O     0.0000000000     0.0000000000     0.0000000000    -12.561238616      0.864620287     -0.000000000
       H     0.8473700000     0.0000000000     0.0000000000      8.349259286      1.780365030     -0.000000000
       H    -0.7062700000     0.8016900000     0.0000000000      4.211979279     -2.644985316     -0.000000000
