       3
Lattice="15.0 0.0 0.0 0.0 15.0 0.0 0.0 0.0 15.0" Properties=species:S:1:pos:R:3:forces:R:3 energy=        2.8986983441 pbc="T T T"
       O     0.0000000000     0.0000000000     0.0000000000     -0.391084927      1.844501228     -0.000000000
       H     1.1052600000     0.0000000000     0.0000000000     -4.634645698      1.733730956     -0.000000000
       H    -0.9011000000     1.0228500000     0.0000000000      5.025730626     -3.578232235     -0.000000000
