       3
Lattice="15.0 0.0 0.0 0.0 15.0 0.0 0.0 0.0 15.0" Properties=species:S:1:pos:R:3:forces:R:3 energy=        2.7980581269 pbc="T T T"
       O     0.0000000000     0.0000000000     0.0000000000     -0.134387872      2.267778953     -0.000000000
       H     1.1052600000     0.0000000000     0.0000000000     -4.620507761      1.627670946     -0.000000000
       H    -0.8444100000     1.0701300000     0.0000000000      4.754895581     -3.895449900     -0.000000000
