       3
Lattice="15.0 0.0 0.0 0.0 15.0 0.0 0.0 0.0 15.0" Properties=species:S:1:pos:R:3:forces:R:3 energy=        3.6589087886 pbc="T T T"
       O     0.0000000000     0.0000000000     0.0000000000    -24.367500972      6.765642362     -0.000000000
       H     0.7368400000     0.0000000000     0.0000000000     27.939148198     -3.966386618     -0.000000000
       H     0.3450800000     1.0887300000     0.0000000000     -3.571647226     -2.799255744     -0.000000000
