       3
Lattice="15.0 0.0 0.0 0.0 15.0 0.0 0.0 0.0 15.0" Properties=species:S:1:pos:R:3:forces:R:3 energy=        0.5471387260 pbc="T T T"
       O     0.0000000000     0.0000000000     0.0000000000      3.134995798      3.700325395     -0.000000000
       H     0.9947400000     0.0000000000     0.0000000000     -0.769890980     -2.071135749     -0.000000000
       H     0.2035300000     1.0113000000     0.0000000000     -2.365104870     -1.629189646     -0.000000000
