       3
Lattice="15.0 0.0 0.0 0.0 15.0 0.0 0.0 0.0 15.0" Properties=species:S:1:pos:R:3:forces:R:3 energy=        2.5616942892 pbc="T T T"
       O     0.0000000000     0.0000000000     0.0000000000     -2.878473887      2.567259597     -0.000000000
       H     0.9947400000     0.0000000000     0.0000000000     -1.527705945      1.650032304     -0.000000000
       H    -0.8064500000     1.1443900000     0.0000000000      4.406179883     -4.217291901     -0.000000000
