       3
Lattice="15.0 0.0 0.0 0.0 15.0 0.0 0.0 0.0 15.0" Properties=species:S:1:pos:R:3:forces:R:3 energy=        1.6294081527 pbc="T T T"
       O     0.0000000000     0.0000000000     0.0000000000      0.259664830    -11.949067098     -0.000000000
       H     0.9947400000     0.0000000000     0.0000000000     -0.247815689     -3.069762561     -0.000000000
       H     0.2027000000     0.7847700000     0.0000000000     -0.011849140     15.018829659     -0.000000000
