       3
Lattice="15.0 0.0 0.0 0.0 15.0 0.0 0.0 0.0 15.0" Properties=species:S:1:pos:R:3:forces:R:3 energy=        0.6361334007 pbc="T T T"
       O     0.0000000000     0.0000000000     0.0000000000     -3.365223386      5.203619218     -0.000000000
       H     0.9210500000     0.0000000000     0.0000000000      2.472212142     -0.056721545     -0.000000000
       H    -0.2050900000     1.1235400000     0.0000000000      0.893011244     -5.146897673     -0.000000000
