       3
Lattice="15.0 0.0 0.0 0.0 15.0 0.0 0.0 0.0 15.0" Properties=species:S:1:pos:R:3:forces:R:3 energy=        2.4345217515 pbc="T T T"
       O     0.0000000000     0.0000000000     0.0000000000      2.352257010      5.996984792     -0.000000000
       H     0.9578900000     0.0000000000     0.0000000000      1.052728968     -2.326315647     -0.000000000
       H     0.5499500000     1.2473000000     0.0000000000     -3.404985978     -3.670669146     -0.000000000
