       3
Lattice="15.0 0.0 0.0 0.0 15.0 0.0 0.0 0.0 15.0" Properties=species:S:1:pos:R:3:forces:R:3 energy=        3.5911754365 pbc="T T T"
       O     0.0000000000     0.0000000000     0.0000000000      8.574193432    -26.893934619     -0.000000000
       H     1.2526300000     0.0000000000     0.0000000000     -5.897950737     -0.411145506     -0.000000000
       H    -0.0531700000     0.7349200000     0.0000000000     -2.676242695     27.305080126     -0.000000000
