       3
Lattice="15.0 0.0 0.0 0.0 15.0 0.0 0.0 0.0 15.0" Properties=species:S:1:pos:R:3:forces:R:3 energy=        1.0905061009 pbc="T T T"
       O     0.0000000000     0.0000000000     0.0000000000     -4.566835134      6.319004559     -0.000000000
       H     0.8842100000     0.0000000000     0.0000000000      5.622639811     -1.158428200     -0.000000000
       H     0.0425600000     1.1781800000     0.0000000000     -1.055804677     -5.160576360     -0.000000000
