       3
Lattice="15.0 0.0 0.0 0.0 15.0 0.0 0.0 0.0 15.0" Properties=species:S:1:pos:R:3:forces:R:3 energy=        1.3927845524 pbc="T T T"
       O     0.0000000000     0.0000000000     0.0000000000      4.066600656    -11.270916413     -0.000000000
       H     0.8842100000     0.0000000000     0.0000000000      4.087769947      1.542348179     -0.000000000
       H    -0.5984100000     0.5466900000     0.0000000000     -8.154370602      9.728568285     -0.000000000
