       3
Lattice="15.0 0.0 0.0 0.0 15.0 0.0 0.0 0.0 15.0" Properties=species:S:1:pos:R:3:forces:R:3 energy=        2.4857267118 pbc="T T T"
       O     0.0000000000     0.0000000000     0.0000000000      3.228638248      4.581713344     -0.000000000
       H     1.2526300000     0.0000000000     0.0000000000     -5.905126946      0.732920659     -0.000000000
       H    -0.4213300000     1.1796400000     0.0000000000      2.676488698     -5.314634003     -0.000000000
