       3
Lattice="15.0 0.0 0.0 0.0 15.0 0.0 0.0 0.0 15.0" Properties=species:S:1:pos:R:3:forces:R:3 energy=        4.3120313515 pbc="T T T"
       O     0.0000000000     0.0000000000     0.0000000000     -0.982603587    -35.092214748     -0.000000000
       H     1.0684200000     0.0000000000     0.0000000000     -2.768741106     -2.442479376     -0.000000000
       H     0.1381100000     0.6862400000     0.0000000000      3.751344693     37.534694176     -0.000000000
