       3
Lattice="15.0 0.0 0.0 0.0 15.0 0.0 0.0 0.0 15.0" Properties=species:S:1:pos:R:3:forces:R:3 energy=        3.2786997440 pbc="T T T"
       O     0.0000000000     0.0000000000     0.0000000000    -24.191270690      2.864188059     -0.000000000
       H     0.7736800000     0.0000000000     0.0000000000     19.433431914      1.904099582     -0.000000000
       H    -0.7427800000     1.0540400000     0.0000000000      4.757838828     -4.768287590     -0.000000000
