       3
Lattice="15.0 0.0 0.0 0.0 15.0 0.0 0.0 0.0 15.0" Properties=species:S:1:pos:R:3:forces:R:3 energy=        4.1893948267 pbc="T T T"
       O     0.0000000000     0.0000000000     0.0000000000     -5.774736062    -34.769596325     -0.000000000
       H     0.8473700000     0.0000000000     0.0000000000      9.377876796     -2.421267765     -0.000000000
       H    -0.0126400000     0.6998900000     0.0000000000     -3.603140735     37.190864039     -0.000000000
