       3
Lattice="15.0 0.0 0.0 0.0 15.0 0.0 0.0 0.0 15.0" Properties=species:S:1:pos:R:3:forces:R:3 energy=        4.5462616151 pbc="T T T"
       O     0.0000000000     0.0000000000     0.0000000000    -39.442247420      5.042467692     -0.000000000
       H     0.7000000000     0.0000000000     0.0000000000     36.941294959      0.722671002     -0.000000000
       H    -0.4089400000     1.1449500000     0.0000000000      2.500952461     -5.765138695     -0.000000000
