       3
Lattice="15.0 0.0 0.0 0.0 15.0 0.0 0.0 0.0 15.0" Properties=species:S:1:pos:R:3:forces:R:3 energy=        2.7363195765 pbc="T T T"
       O     0.0000000000     0.0000000000     0.0000000000     -1.822312803      2.148242295     -0.000000000
       H     1.0315800000     0.0000000000     0.0000000000     -2.854823532      1.726021293     -0.000000000
       H    -0.8672300000     1.0990500000     0.0000000000      4.677136335     -3.874263588     -0.000000000
