       3
Lattice="15.0 0.0 0.0 0.0 15.0 0.0 0.0 0.0 15.0" Properties=species:S:1:pos:R:3:forces:R:3 energy=        5.8162705110 pbc="T T T"
       O     0.0000000000     0.0000000000     0.0000000000    -40.494503818      3.779157203     -0.000000000
       H     0.7000000000     0.0000000000     0.0000000000     37.065680052      1.534843794     -0.000000000
       H    -0.6106900000     1.2597900000     0.0000000000      3.428823766     -5.314000997     -0.000000000
