       3
Lattice="15.0 0.0 0.0 0.0 15.0 0.0 0.0 0.0 15.0" Properties=species:S:1:pos:R:3:forces:R:3 energy=        3.0527191209 pbc="T T T"
       O     0.0000000000     0.0000000000     0.0000000000     -2.500936057      0.883415985     -0.000000000
       H     1.0315800000     0.0000000000     0.0000000000     -2.908691974      2.031310370     -0.000000000
       H    -1.0336100000     0.9442700000     0.0000000000      5.409628030     -2.914726355     -0.000000000
