       3
Lattice="15.0 0.0 0.0 0.0 15.0 0.0 0.0 0.0 15.0" Properties=species:S:1:pos:R:3:forces:R:3 energy=        0.6385684388 pbc="T T T"
       O     0.0000000000     0.0000000000     0.0000000000     -5.193413785      5.254991889     -0.000000000
       H     0.8842100000     0.0000000000     0.0000000000      5.468320995     -0.749136717     -0.000000000
       H    -0.0797500000     1.1023800000     0.0000000000     -0.274907211     -4.505855172     -0.000000000
