       3
Lattice="15.0 0.0 0.0 0.0 15.0 0.0 0.0 0.0 15.0" Properties=species:S:1:pos:R:3:forces:R:3 energy=        0.6759892837 pbc="T T T"
       O     0.0000000000     0.0000000000     0.0000000000     -3.973781371      4.957944230     -0.000000000
       H     0.8842100000     0.0000000000     0.0000000000      5.759442002     -1.805478857     -0.000000000
       H     0.0963200000     1.0640700000     0.0000000000     -1.785660631     -3.152465373     -0.000000000
