       3
Lattice="15.0 0.0 0.0 0.0 15.0 0.0 0.0 0.0 15.0" Properties=species:S:1:pos:R:3:forces:R:3 energy=        2.5832289665 pbc="T T T"
       O     0.0000000000     0.0000000000     0.0000000000      5.816960692      5.676524194     -0.000000000
       H     1.3263200000     0.0000000000     0.0000000000     -5.776112220     -0.129243195     -0.000000000
       H    -0.0219500000     1.2155900000     0.0000000000     -0.040848524     -5.547280999     -0.000000000
