       3
Lattice="15.0 0.0 0.0 0.0 15.0 0.0 0.0 0.0 15.0" Properties=species:S:1:pos:R:3:forces:R:3 energy=        3.1082433472 pbc="T T T"
       O     0.0000000000     0.0000000000     0.0000000000      7.600068473      5.603137573     -0.000000000
       H     1.1789500000     0.0000000000     0.0000000000     -4.834056234     -1.243853657     -0.000000000
       H     0.4946300000     1.3097100000     0.0000000000     -2.766012239     -4.359283916     -0.000000000
