       3
Lattice="15.0 0.0 0.0 0.0 15.0 0.0 0.0 0.0 15.0" Properties=species:S:1:pos:R:3:forces:R:3 energy=        3.9172998024 pbc="T T T"
       O     0.0000000000     0.0000000000     0.0000000000      0.334022454      1.081850324     -0.000000000
       H     1.3631600000     0.0000000000     0.0000000000     -5.784657542      1.575445491     -0.000000000
       H    -0.9248100000     0.8448700000     0.0000000000      5.450635088     -2.657295867     -0.000000000
