       3
Lattice="15.0 0.0 0.0 0.0 15.0 0.0 0.0 0.0 15.0" Properties=species:S:1:pos:R:3:forces:R:3 energy=        1.7260442716 pbc="T T T"
       O     0.0000000000     0.0000000000     0.0000000000     -2.381547391      5.760540120     -0.000000000
       H     0.8842100000     0.0000000000     0.0000000000      6.440117665     -3.748073477     -0.000000000
       H     0.4607700000     1.0450400000     0.0000000000     -4.058570274     -2.012466643     -0.000000000
