       3
Lattice="15.0 0.0 0.0 0.0 15.0 0.0 0.0 0.0 15.0" Properties=species:S:1:pos:R:3:forces:R:3 energy=        1.6314067610 pbc="T T T"
       O     0.0000000000     0.0000000000     0.0000000000     -9.080485329      3.727732956     -0.000000000
       H     0.8842100000     0.0000000000     0.0000000000      5.133994946      1.384294783     -0.000000000
       H    -0.6066300000     1.0959400000     0.0000000000      3.946490384     -5.112027738     -0.000000000
