       3
Lattice="15.0 0.0 0.0 0.0 15.0 0.0 0.0 0.0 15.0" Properties=species:S:1:pos:R:3:forces:R:3 energy=        1.8988489702 pbc="T T T"
       O     0.0000000000     0.0000000000     0.0000000000     -7.536092094      5.156840751     -0.000000000
       H     0.8842100000     0.0000000000     0.0000000000      5.353590399      0.654716251     -0.000000000
       H    -0.3778400000     1.2713600000     0.0000000000      2.182501695     -5.811556950     -0.000000000
