       3
Lattice="15.0 0.0 0.0 0.0 15.0 0.0 0.0 0.0 15.0" Properties=species:S:1:pos:R:3:forces:R:3 energy=        2.6693697381 pbc="T T T"
       O     0.0000000000     0.0000000000     0.0000000000      3.919305532     -8.282730572     -0.000000000
       H     1.3263200000     0.0000000000     0.0000000000     -4.809810720     -1.727230998     -0.000000000
       H     0.2993800000     0.7927200000     0.0000000000      0.890505137     10.009961570     -0.000000000
