       3
Lattice="15.0 0.0 0.0 0.0 15.0 0.0 0.0 0.0 15.0" Properties=species:S:1:pos:R:3:forces:R:3 energy=        0.5700329957 pbc="T T T"
       O     0.0000000000     0.0000000000     0.0000000000      3.282236107      0.269251655     -0.000000000
       H     1.1052600000     0.0000000000     0.0000000000     -4.976898823      0.909632200     -0.000000000
       H    -0.4339100000     0.8951100000     0.0000000000      1.694662716     -1.178883803     -0.000000000
