       3
Lattice="15.0 0.0 0.0 0.0 15.0 0.0 0.0 0.0 15.0" Properties=species:S:1:pos:R:3:forces:R:3 energy=        2.4270109328 pbc="T T T"
       O     0.0000000000     0.0000000000     0.0000000000      6.149870577      6.103459109     -0.000000000
       H     1.1789500000     0.0000000000     0.0000000000     -5.184597982     -0.514694678     -0.000000000
       H     0.1195700000     1.3209200000     0.0000000000     -0.965272595     -5.588764431     -0.000000000
