       3
Lattice="15.0 0.0 0.0 0.0 15.0 0.0 0.0 0.0 15.0" Properties=species:S:1:pos:R:3:forces:R:3 energy=        2.0794328027 pbc="T T T"
       O     0.0000000000     0.0000000000     0.0000000000      4.995649321     -2.245728597     -0.000000000
       H     1.3263200000     0.0000000000     0.0000000000     -6.316854705      1.210612825     -0.000000000
       H    -0.5517800000     0.7830000000     0.0000000000      1.321205383      1.035115771     -0.000000000
