       3
Lattice="15.0 0.0 0.0 0.0 15.0 0.0 0.0 0.0 15.0" Properties=species:S:1:pos:R:3:forces:R:3 energy=        3.6454563284 pbc="T T T"
       O     0.0000000000     0.0000000000     0.0000000000     22.341350088    -31.643182667     -0.000000000
       H     0.9947400000     0.0000000000     0.0000000000     -2.546297794      1.024880102     -0.000000000
       H    -0.4032300000     0.5722000000     0.0000000000    -19.795052294     30.618302617     -0.000000000
