       3
Lattice="15.0 0.0 0.0 0.0 15.0 0.0 0.0 0.0 15.0" Properties=species:S:1:pos:R:3:forces:R:3 energy=        1.9548927381 pbc="T T T"
       O     0.0000000000     0.0000000000     0.0000000000      4.970205518      0.686505540     -0.000000000
       H     1.3631600000     0.0000000000     0.0000000000     -6.027929782      0.494381719     -0.000000000
       H    -0.2833800000     0.9535200000     0.0000000000      1.057724263     -1.180887311     -0.000000000
