       3
Lattice="15.0 0.0 0.0 0.0 15.0 0.0 0.0 0.0 15.0" Properties=species:S:1:pos:R:3:forces:R:3 energy=        1.9714616966 pbc="T T T"
       O     0.0000000000     0.0000000000     0.0000000000      6.105877902      5.889195972     -0.000000000
       H     1.2157900000     0.0000000000     0.0000000000     -5.498751456     -0.408893116     -0.000000000
       H     0.0438900000     1.2150000000     0.0000000000     -0.607126497     -5.480302856     -0.000000000
