       3
Lattice="15.0 0.0 0.0 0.0 15.0 0.0 0.0 0.0 15.0" Properties=species:S:1:pos:R:3:forces:R:3 energy=        2.5934213448 pbc="T T T"
       O     0.0000000000     0.0000000000     0.0000000000      9.293271779     -9.480858011     -0.000000000
       H     1.3631600000     0.0000000000     0.0000000000     -6.292582811      0.939391447     -0.000000000
       H    -0.4103700000     0.7413700000     0.0000000000     -3.000689019      8.541466564     -0.000000000
