       3
Lattice="15.0 0.0 0.0 0.0 15.0 0.0 0.0 0.0 15.0" Properties=species:S:1:pos:R:3:forces:R:3 energy=        2.2643563615 pbc="T T T"
       O     0.0000000000     0.0000000000     0.0000000000      2.844097604      4.953856894     -0.000000000
       H     1.1421100000     0.0000000000     0.0000000000     -5.077303483      0.636496840     -0.000000000
       H    -0.3778400000     1.2713600000     0.0000000000      2.233205930     -5.590353734     -0.000000000
