       3
Lattice="15.0 0.0 0.0 0.0 15.0 0.0 0.0 0.0 15.0" Properties=species:S:1:pos:R:3:forces:R:3 energy=        2.4496571108 pbc="T T T"
       O     0.0000000000     0.0000000000     0.0000000000      6.960022121      6.020800469     -0.000000000
       H     1.2526300000     0.0000000000     0.0000000000     -5.516106513     -0.656806250     -0.000000000
       H     0.1803000000     1.2395900000     0.0000000000     -1.443915659     -5.363994219     -0.000000000
