       3
Lattice="15.0 0.0 0.0 0.0 15.0 0.0 0.0 0.0 15.0" Properties=species:S:1:pos:R:3:forces:R:3 energy=        5.8040613498 pbc="T T T"
       O     0.0000000000     0.0000000000     0.0000000000      1.650841533    -36.414601040     -0.000000000
       H     1.4000000000     0.0000000000     0.0000000000     -5.385439698     -0.832903606     -0.000000000
       H     0.1007600000     0.6927100000     0.0000000000      3.734598165     37.247504646     -0.000000000
