       3
Lattice="15.0 0.0 0.0 0.0 15.0 0.0 0.0 0.0 15.0" Properties=species:S:1:pos:R:3:forces:R:3 energy=        3.0051559910 pbc="T T T"
       O     0.0000000000     0.0000000000     0.0000000000    -18.513062423      2.348062099     -0.000000000
       H     0.8105300000     0.0000000000     0.0000000000     13.471823667      2.034068497     -0.000000000
       H    -0.8215900000     1.0412100000     0.0000000000      5.041238756     -4.382130544     -0.000000000
