       3
Lattice="15.0 0.0 0.0 0.0 15.0 0.0 0.0 0.0 15.0" Properties=species:S:1:pos:R:3:forces:R:3 energy=        3.8401298519 pbc="T T T"
       O     0.0000000000     0.0000000000     0.0000000000     26.859936341    -28.575003495     -0.000000000
       H     0.9947400000     0.0000000000     0.0000000000     -2.810271486      1.349871603     -0.000000000
       H    -0.4904900000     0.4994200000     0.0000000000    -24.049664906     27.225131892     -0.000000000
