       3
Lattice="15.0 0.0 0.0 0.0 15.0 0.0 0.0 0.0 15.0" Properties=species:S:1:pos:R:3:forces:R:3 energy=        1.9538048051 pbc="T T T"
       O     0.0000000000     0.0000000000     0.0000000000      7.648304499      5.278443240     -0.000000000
       H     1.1421100000     0.0000000000     0.0000000000     -4.040897068     -2.071937368     -0.000000000
       H     0.4756300000     1.0787500000     0.0000000000     -3.607407431     -3.206505873     -0.000000000
