       3
Lattice="15.0 0.0 0.0 0.0 15.0 0.0 0.0 0.0 15.0" Properties=species:S:1:pos:R:3:forces:R:3 energy=        3.4994175491 pbc="T T T"
       O     0.0000000000     0.0000000000     0.0000000000      1.457669319      2.702043213     -0.000000000
       H     1.2526300000     0.0000000000     0.0000000000     -5.822227548      1.345339980     -0.000000000
       H    -0.7852300000     1.1142800000     0.0000000000      4.364558177     -4.047383193     -0.000000000
