       3
Lattice="15.0 0.0 0.0 0.0 15.0 0.0 0.0 0.0 15.0" Properties=species:S:1:pos:R:3:forces:R:3 energy=        1.8290981524 pbc="T T T"
       O     0.0000000000     0.0000000000     0.0000000000     -3.508891762      2.000163343     -0.000000000
       H     0.9947400000     0.0000000000     0.0000000000     -1.801434767      1.829630423     -0.000000000
       H    -0.8280400000     0.9399100000     0.0000000000      5.310326477     -3.829793767     -0.000000000
