       3
Lattice="15.0 0.0 0.0 0.0 15.0 0.0 0.0 0.0 15.0" Properties=species:S:1:pos:R:3:forces:R:3 energy=        2.5241984143 pbc="T T T"
       O     0.0000000000     0.0000000000     0.0000000000      3.905978315      3.576198955     -0.000000000
       H     1.4000000000     0.0000000000     0.0000000000     -5.825396691      0.529200026     -0.000000000
       H    -0.3148700000     1.0594600000     0.0000000000      1.919418428     -4.105398981     -0.000000000
