       3
Lattice="15.0 0.0 0.0 0.0 15.0 0.0 0.0 0.0 15.0" Properties=species:S:1:pos:R:3:forces:R:3 energy=        3.6423394791 pbc="T T T"
       O     0.0000000000     0.0000000000     0.0000000000     23.767597478    -22.054702392     -0.000000000
       H     1.1789500000     0.0000000000     0.0000000000     -6.575481580      1.385503973     -0.000000000
       H    -0.5163000000     0.5257100000     0.0000000000    -17.192115898     20.669198419     -0.000000000
