       3
Lattice="15.0 0.0 0.0 0.0 15.0 0.0 0.0 0.0 15.0" Properties=species:S:1:pos:R:3:forces:R:3 energy=        1.0571182637 pbc="T T T"
       O     0.0000000000     0.0000000000     0.0000000000     -2.710170217      1.962858676     -0.000000000
       H     0.9947400000     0.0000000000     0.0000000000     -1.941177684      1.634169052     -0.000000000
       H    -0.7074800000     0.8966000000     0.0000000000      4.651347901     -3.597027728     -0.000000000
