       3
Lattice="15.0 0.0 0.0 0.0 15.0 0.0 0.0 0.0 15.0" Properties=species:S:1:pos:R:3:forces:R:3 energy=        1.9305502539 pbc="T T T"
       O     0.0000000000     0.0000000000     0.0000000000      4.312981669      6.323908221     -0.000000000
       H     1.0315800000     0.0000000000     0.0000000000     -2.333053226     -1.194324365     -0.000000000
       H     0.2616900000     1.3002500000     0.0000000000     -1.979928392     -5.129583856     -0.000000000
