       3
Lattice="15.0 0.0 0.0 0.0 15.0 0.0 0.0 0.0 15.0" Properties=species:S:1:pos:R:3:forces:R:3 energy=        3.0793491547 pbc="T T T"
       O     0.0000000000     0.0000000000     0.0000000000    -20.756109975    -11.995327025     -0.000000000
       H     0.7368400000     0.0000000000     0.0000000000     26.540025702      0.537396707     -0.000000000
       H    -0.3925300000     0.7091400000     0.0000000000     -5.783915727     11.457930318     -0.000000000
