       3
Lattice="15.0 0.0 0.0 0.0 15.0 0.0 0.0 0.0 15.0" Properties=species:S:1:pos:R:3:forces:R:3 energy=        1.6903967274 pbc="T T T"
       O     0.0000000000     0.0000000000     0.0000000000      9.848303948    -13.425530521     -0.000000000
       H     1.1789500000     0.0000000000     0.0000000000     -5.927212270      0.459659880     -0.000000000
       H    -0.2726300000     0.7633000000     0.0000000000     -3.921091678     12.965870641     -0.000000000
