       3
Lattice="15.0 0.0 0.0 0.0 15.0 0.0 0.0 0.0 15.0" Properties=species:S:1:pos:R:3:forces:R:3 energy=        1.8359055840 pbc="T T T"
       O     0.0000000000     0.0000000000     0.0000000000      5.768023320     -2.070717533     -0.000000000
       H     1.2157900000     0.0000000000     0.0000000000     -4.306829736     -2.370129888     -0.000000000
       H     0.3715800000     0.8427700000     0.0000000000     -1.461193583      4.440847421     -0.000000000
