       3
Lattice="15.0 0.0 0.0 0.0 15.0 0.0 0.0 0.0 15.0" Properties=species:S:1:pos:R:3:forces:R:3 energy=        3.6469081783 pbc="T T T"
       O     0.0000000000     0.0000000000     0.0000000000      5.741136253    -19.488929459     -0.000000000
       H     1.4000000000     0.0000000000     0.0000000000     -5.622477729     -0.463584363     -0.000000000
       H     0.0279300000     0.7731800000     0.0000000000     -0.118658524     19.952513822     -0.000000000
