       3
Lattice="15.0 0.0 0.0 0.0 15.0 0.0 0.0 0.0 15.0" Properties=species:S:1:pos:R:3:forces:R:3 energy=        1.8248029630 pbc="T T T"
       O     0.0000000000     0.0000000000     0.0000000000      2.132407891      0.457087696     -0.000000000
       H     1.2157900000     0.0000000000     0.0000000000     -6.169472420      1.515897994     -0.000000000
       H    -0.7062700000     0.8016900000     0.0000000000      4.037064529     -1.972985742     -0.000000000
