       3
Lattice="15.0 0.0 0.0 0.0 15.0 0.0 0.0 0.0 15.0" Properties=species:S:1:pos:R:3:forces:R:3 energy=        2.2815604881 pbc="T T T"
       O     0.0000000000     0.0000000000     0.0000000000      7.289887561      5.467937798     -0.000000000
       H     1.1052600000     0.0000000000     0.0000000000     -3.430504908     -2.252020655     -0.000000000
       H     0.5666700000     1.1171300000     0.0000000000     -3.859382653     -3.215917143     -0.000000000
