       3
Lattice="15.0 0.0 0.0 0.0 15.0 0.0 0.0 0.0 15.0" Properties=species:S:1:pos:R:3:forces:R:3 energy=        4.4145295730 pbc="T T T"
       O     0.0000000000     0.0000000000     0.0000000000    -25.957187090      6.934549727     -0.000000000
       H     0.7368400000     0.0000000000     0.0000000000     27.638117538     -1.677450201     -0.000000000
       H     0.1962100000     1.3489600000     0.0000000000     -1.680930448     -5.257099526     -0.000000000
