       3
Lattice="15.0 0.0 0.0 0.0 15.0 0.0 0.0 0.0 15.0" Properties=species:S:1:pos:R:3:forces:R:3 energy=        1.1827237602 pbc="T T T"
       O     0.0000000000     0.0000000000     0.0000000000     10.028952518    -12.701600243     -0.000000000
       H     1.0315800000     0.0000000000     0.0000000000     -3.694227764      1.156709005     -0.000000000
       H    -0.4669000000     0.6625500000     0.0000000000     -6.334724754     11.544891290     -0.000000000
