       3
Lattice="15.0 0.0 0.0 0.0 15.0 0.0 0.0 0.0 15.0" Properties=species:S:1:pos:R:3:forces:R:3 energy=        2.1227252471 pbc="T T T"
       O     0.0000000000     0.0000000000     0.0000000000      5.454685452      5.905038449     -0.000000000
       H     1.0315800000     0.0000000000     0.0000000000     -1.879421917     -2.241987691     -0.000000000
       H     0.5202200000     1.1798800000     0.0000000000     -3.575263535     -3.663050809     -0.000000000
