       3
Lattice="15.0 0.0 0.0 0.0 15.0 0.0 0.0 0.0 15.0" Properties=species:S:1:pos:R:3:forces:R:3 energy=        3.9967489596 pbc="T T T"
       O     0.0000000000     0.0000000000     0.0000000000    -24.104035021      2.492084053     -0.000000000
       H     0.7736800000     0.0000000000     0.0000000000     19.580731872      2.004064069     -0.000000000
       H    -0.8064500000     1.1443900000     0.0000000000      4.523303149     -4.496148070     -0.000000000
