       3
Lattice="15.0 0.0 0.0 0.0 15.0 0.0 0.0 0.0 15.0" Properties=species:S:1:pos:R:3:forces:R:3 energy=        3.8092175732 pbc="T T T"
       O     0.0000000000     0.0000000000     0.0000000000      1.047328671      2.387288153     -0.000000000
       H     1.3631600000     0.0000000000     0.0000000000     -5.766985982      1.327867989     -0.000000000
       H    -0.7987600000     1.0122800000     0.0000000000      4.719657310     -3.715156142     -0.000000000
