       3
Lattice="15.0 0.0 0.0 0.0 15.0 0.0 0.0 0.0 15.0" Properties=species:S:1:pos:R:3:forces:R:3 energy=        2.3003379717 pbc="T T T"
       O     0.0000000000     0.0000000000     0.0000000000      7.557888271      2.560789516     -0.000000000
       H     1.3263200000     0.0000000000     0.0000000000     -4.836527168     -1.651332100     -0.000000000
       H     0.4161800000     0.9439000000     0.0000000000     -2.721361103     -0.909457416     -0.000000000
