       3
Lattice="15.0 0.0 0.0 0.0 15.0 0.0 0.0 0.0 15.0" Properties=species:S:1:pos:R:3:forces:R:3 energy=        5.9150481741 pbc="T T T"
       O     0.0000000000     0.0000000000     0.0000000000    -22.785555214    -33.198457536     -0.000000000
       H     0.7736800000     0.0000000000     0.0000000000     20.858193308     -5.133039832     -0.000000000
       H     0.1381100000     0.6862400000     0.0000000000      1.927361957     38.331497317     -0.000000000
