       3
Lattice="15.0 0.0 0.0 0.0 15.0 0.0 0.0 0.0 15.0" Properties=species:S:1:pos:R:3:forces:R:3 energy=        1.9407451194 pbc="T T T"
       O     0.0000000000     0.0000000000     0.0000000000    -21.829604467     -1.142311232     -0.000000000
       H     0.7736800000     0.0000000000     0.0000000000     18.789936323      1.908592587     -0.000000000
       H    -0.7344100000     0.6709300000     0.0000000000      3.039668144     -0.766281304     -0.000000000
