       3
Lattice="15.0 0.0 0.0 0.0 15.0 0.0 0.0 0.0 15.0" Properties=species:S:1:pos:R:3:forces:R:3 energy=        1.3619223726 pbc="T T T"
       O     0.0000000000     0.0000000000     0.0000000000      0.646797867      5.066663327     -0.000000000
       H     1.0315800000     0.0000000000     0.0000000000     -2.841424941      0.595704366     -0.000000000
       H    -0.3568500000     1.2007200000     0.0000000000      2.194627074     -5.662367693     -0.000000000
