       3
Lattice="15.0 0.0 0.0 0.0 15.0 0.0 0.0 0.0 15.0" Properties=species:S:1:pos:R:3:forces:R:3 energy=        1.0120040905 pbc="T T T"
       O     0.0000000000     0.0000000000     0.0000000000     -0.512542767      6.055121627     -0.000000000
       H     0.9578900000     0.0000000000     0.0000000000      0.394263069     -0.370868488     -0.000000000
       H    -0.0877300000     1.2126200000     0.0000000000      0.118279697     -5.684253191     -0.000000000
