       3
Lattice="15.0 0.0 0.0 0.0 15.0 0.0 0.0 0.0 15.0" Properties=species:S:1:pos:R:3:forces:R:3 energy=        1.6557238650 pbc="T T T"
       O     0.0000000000     0.0000000000     0.0000000000     11.330861763    -16.990592532     -0.000000000
       H     0.9578900000     0.0000000000     0.0000000000     -0.810779767      1.219894564     -0.000000000
       H    -0.4792500000     0.6073700000     0.0000000000    -10.520081996     15.770697968     -0.000000000
