       3
Lattice="15.0 0.0 0.0 0.0 15.0 0.0 0.0 0.0 15.0" Properties=species:S:1:pos:R:3:forces:R:3 energy=        0.9207797203 pbc="T T T"
       O     0.0000000000     0.0000000000     0.0000000000     -6.324513202      0.157369843     -0.000000000
       H     0.9210500000     0.0000000000     0.0000000000      1.711461644      1.871596760     -0.000000000
       H    -0.7888100000     0.7206300000     0.0000000000      4.613051558     -2.028966603     -0.000000000
