       3
Lattice="15.0 0.0 0.0 0.0 15.0 0.0 0.0 0.0 15.0" Properties=species:S:1:pos:R:3:forces:R:3 energy=        1.0000386345 pbc="T T T"
       O     0.0000000000     0.0000000000     0.0000000000      8.323376441     -9.059299789     -0.000000000
       H     1.1052600000     0.0000000000     0.0000000000     -5.215249557      0.932544750     -0.000000000
       H    -0.4103700000     0.7413700000     0.0000000000     -3.108126832      8.126754987     -0.000000000
