       3
Lattice="15.0 0.0 0.0 0.0 15.0 0.0 0.0 0.0 15.0" Properties=species:S:1:pos:R:3:forces:R:3 energy=        5.8786597781 pbc="T T T"
       O     0.0000000000     0.0000000000     0.0000000000    -40.869172964      3.335706233     -0.000000000
       H     0.7000000000     0.0000000000     0.0000000000     37.041500461      1.761125301     -0.000000000
       H    -0.6780000000     1.2248800000     0.0000000000      3.827672503     -5.096831535     -0.000000000
