       3
Lattice="15.0 0.0 0.0 0.0 15.0 0.0 0.0 0.0 15.0" Properties=species:S:1:pos:R:3:forces:R:3 energy=        3.3919792092 pbc="T T T"
       O     0.0000000000     0.0000000000     0.0000000000     19.474136867    -16.150130856     -0.000000000
       H     1.2526300000     0.0000000000     0.0000000000     -6.860518633      1.449033288     -0.000000000
       H    -0.5712000000     0.5218300000     0.0000000000    -12.613618183     14.701097568     -0.000000000
