       3
Lattice="15.0 0.0 0.0 0.0 15.0 0.0 0.0 0.0 15.0" Properties=species:S:1:pos:R:3:forces:R:3 energy=        4.1800388801 pbc="T T T"
       O     0.0000000000     0.0000000000     0.0000000000      0.801696364    -35.403440299     -0.000000000
       H     1.0684200000     0.0000000000     0.0000000000     -2.991870388     -2.118611088     -0.000000000
       H     0.1007600000     0.6927100000     0.0000000000      2.190174025     37.522051336     -0.000000000
