       3
Lattice="15.0 0.0 0.0 0.0 15.0 0.0 0.0 0.0 15.0" Properties=species:S:1:pos:R:3:forces:R:3 energy=        1.3634226451 pbc="T T T"
       O     0.0000000000     0.0000000000     0.0000000000    -15.813323948     -1.176491134     -0.000000000
       H     0.8105300000     0.0000000000     0.0000000000     12.798257827      1.868632586     -0.000000000
       H    -0.7344100000     0.6709300000     0.0000000000      3.015066121     -0.692141401     -0.000000000
