       3
Lattice="15.0 0.0 0.0 0.0 15.0 0.0 0.0 0.0 15.0" Properties=species:S:1:pos:R:3:forces:R:3 energy=        1.2318822365 pbc="T T T"
       O     0.0000000000     0.0000000000     0.0000000000      2.831687295      4.018663135     -0.000000000
       H     1.1421100000     0.0000000000     0.0000000000     -5.260691822      0.700223719     -0.000000000
       H    -0.3841600000     1.0755600000     0.0000000000      2.429004527     -4.718886905     -0.000000000
