       3
Lattice="15.0 0.0 0.0 0.0 15.0 0.0 0.0 0.0 15.0" Properties=species:S:1:pos:R:3:forces:R:3 energy=        0.2181988116 pbc="T T T"
       O     0.0000000000     0.0000000000     0.0000000000      2.435344819      2.348322757     -0.000000000
       H     0.9947400000     0.0000000000     0.0000000000     -1.136174263     -1.258997102     -0.000000000
       H     0.0359100000     0.9940900000     0.0000000000     -1.299170556     -1.089325656     -0.000000000
