       3
Lattice="15.0 0.0 0.0 0.0 15.0 0.0 0.0 0.0 15.0" Properties=species:S:1:pos:R:3:forces:R:3 energy=        1.4693409188 pbc="T T T"
       O     0.0000000000     0.0000000000     0.0000000000    -18.740920737     -2.176785358     -0.000000000
       H     0.7736800000     0.0000000000     0.0000000000     19.209402128      0.334259921     -0.000000000
       H    -0.3563100000     0.8493400000     0.0000000000     -0.468481442      1.842525437     -0.000000000
