       3
Lattice="15.0 0.0 0.0 0.0 15.0 0.0 0.0 0.0 15.0" Properties=species:S:1:pos:R:3:forces:R:3 energy=        1.7935958217 pbc="T T T"
       O     0.0000000000     0.0000000000     0.0000000000     12.874025445    -16.051035197     -0.000000000
       H     0.9578900000     0.0000000000     0.0000000000     -0.974379858      1.421960896     -0.000000000
       H    -0.5421100000     0.5519900000     0.0000000000    -11.899645535     14.629074301     -0.000000000
