       3
Lattice="15.0 0.0 0.0 0.0 15.0 0.0 0.0 0.0 15.0" Properties=species:S:1:pos:R:3:forces:R:3 energy=        1.2830821028 pbc="T T T"
       O     0.0000000000     0.0000000000     0.0000000000      9.047113886    -13.245318473     -0.000000000
       H     1.1052600000     0.0000000000     0.0000000000     -5.014953173      0.387057704     -0.000000000
       H    -0.2726300000     0.7633000000     0.0000000000     -4.032160713     12.858260821     -0.000000000
