       3
Lattice="15.0 0.0 0.0 0.0 15.0 0.0 0.0 0.0 15.0" Properties=species:S:1:pos:R:3:forces:R:3 energy=        3.2143519945 pbc="T T T"
       O     0.0000000000     0.0000000000     0.0000000000    -26.755079659      6.625644803     -0.000000000
       H     0.7368400000     0.0000000000     0.0000000000     27.461507093     -1.284364029     -0.000000000
       H    -0.0212800000     1.1787600000     0.0000000000     -0.706427382     -5.341280723     -0.000000000
