       3
Lattice="15.0 0.0 0.0 0.0 15.0 0.0 0.0 0.0 15.0" Properties=species:S:1:pos:R:3:forces:R:3 energy=        2.0271233268 pbc="T T T"
       O     0.0000000000     0.0000000000     0.0000000000    -20.490821317     -2.442408774     -0.000000000
       H     0.7736800000     0.0000000000     0.0000000000     18.609796882      1.908781409     -0.000000000
       H    -0.7729100000     0.5658300000     0.0000000000      1.881024486      0.533627365     -0.000000000
