       3
Lattice="15.0 0.0 0.0 0.0 15.0 0.0 0.0 0.0 15.0" Properties=species:S:1:pos:R:3:forces:R:3 energy=        1.8733369380 pbc="T T T"
       O     0.0000000000     0.0000000000     0.0000000000      4.030249405    -12.600910294     -0.000000000
       H     1.1421100000     0.0000000000     0.0000000000     -4.267912678     -1.859406383     -0.000000000
       H     0.1599200000     0.7946000000     0.0000000000      0.237663272     14.460316677     -0.000000000
