       3
Lattice="15.0 0.0 0.0 0.0 15.0 0.0 0.0 0.0 15.0" Properties=species:S:1:pos:R:3:forces:R:3 energy=        5.5394938466 pbc="T T T"
       O     0.0000000000     0.0000000000     0.0000000000    -33.537385194      5.651651022     -0.000000000
       H     0.7000000000     0.0000000000     0.0000000000     38.099497724     -7.250515366     -0.000000000
       H     0.5342100000     0.9252800000     0.0000000000     -4.562112479      1.598864344     -0.000000000
