       3
Lattice="15.0 0.0 0.0 0.0 15.0 0.0 0.0 0.0 15.0" Properties=species:S:1:pos:R:3:forces:R:3 energy=        3.1275031553 pbc="T T T"
       O     0.0000000000     0.0000000000     0.0000000000    -29.086666276      5.234951262     -0.000000000
       H     0.7368400000     0.0000000000     0.0000000000     27.187246978      0.362005223     -0.000000000
       H    -0.3358600000     1.1301000000     0.0000000000      1.899419298     -5.596956536     -0.000000000
