       3
Lattice="15.0 0.0 0.0 0.0 15.0 0.0 0.0 0.0 15.0" Properties=species:S:1:pos:R:3:forces:R:3 energy=        0.9980382629 pbc="T T T"
       O     0.0000000000     0.0000000000     0.0000000000      6.001924038     -8.069978061     -0.000000000
       H     0.9578900000     0.0000000000     0.0000000000     -0.983139868      1.609329819     -0.000000000
       H    -0.6556300000     0.5368300000     0.0000000000     -5.018784119      6.460648242     -0.000000000
