       3
Lattice="15.0 0.0 0.0 0.0 15.0 0.0 0.0 0.0 15.0" Properties=species:S:1:pos:R:3:forces:R:3 energy=        2.4431827493 pbc="T T T"
       O     0.0000000000     0.0000000000     0.0000000000    -27.259462666      3.710940199     -0.000000000
       H     0.7368400000     0.0000000000     0.0000000000     27.218729945     -0.700675205     -0.000000000
       H    -0.1852400000     1.0148100000     0.0000000000      0.040732721     -3.010265046     -0.000000000
