       3
Lattice="15.0 0.0 0.0 0.0 15.0 0.0 0.0 0.0 15.0" Properties=species:S:1:pos:R:3:forces:R:3 energy=        1.7731482012 pbc="T T T"
       O     0.0000000000     0.0000000000     0.0000000000      5.611818650      5.323182873     -0.000000000
       H     1.0315800000     0.0000000000     0.0000000000     -1.522311254     -2.931814841     -0.000000000
       H     0.5333300000     1.0514200000     0.0000000000     -4.089507396     -2.391368033     -0.000000000
