       3
Lattice="15.0 0.0 0.0 0.0 15.0 0.0 0.0 0.0 15.0" Properties=species:S:1:pos:R:3:forces:R:3 energy=        1.6257666243 pbc="T T T"
       O     0.0000000000     0.0000000000     0.0000000000      4.770082581     -2.963656529     -0.000000000
       H     1.1789500000     0.0000000000     0.0000000000     -6.319793786      1.633731296     -0.000000000
       H    -0.7411400000     0.6068400000     0.0000000000      1.549711205      1.329925232     -0.000000000
