       3
Lattice="15.0 0.0 0.0 0.0 15.0 0.0 0.0 0.0 15.0" Properties=species:S:1:pos:R:3:forces:R:3 energy=        1.7497355465 pbc="T T T"
       O     0.0000000000     0.0000000000     0.0000000000      5.746696009      5.577436763     -0.000000000
       H     1.2157900000     0.0000000000     0.0000000000     -5.566296424     -0.267839090     -0.000000000
       H    -0.0212800000     1.1787600000     0.0000000000     -0.180399584     -5.309597672     -0.000000000
