       3
Lattice="15.0 0.0 0.0 0.0 15.0 0.0 0.0 0.0 15.0" Properties=species:S:1:pos:R:3:forces:R:3 energy=        2.8949035748 pbc="T T T"
       O     0.0000000000     0.0000000000     0.0000000000      1.114294216    -25.653233085     -0.000000000
       H     1.0315800000     0.0000000000     0.0000000000     -1.962881507     -2.271174611     -0.000000000
       H     0.1060600000     0.7291700000     0.0000000000      0.848587291     27.924407696     -0.000000000
