       3
Lattice="15.0 0.0 0.0 0.0 15.0 0.0 0.0 0.0 15.0" Properties=species:S:1:pos:R:3:forces:R:3 energy=        1.8405692727 pbc="T T T"
       O     0.0000000000     0.0000000000     0.0000000000     -0.378438128    -17.705325404     -0.000000000
       H     0.8473700000     0.0000000000     0.0000000000      8.304501192      0.385827224     -0.000000000
       H    -0.3374800000     0.6961900000     0.0000000000     -7.926063013     17.319498179     -0.000000000
