       3
Lattice="15.0 0.0 0.0 0.0 15.0 0.0 0.0 0.0 15.0" Properties=species:S:1:pos:R:3:forces:R:3 energy=        0.8084544985 pbc="T T T"
       O     0.0000000000     0.0000000000     0.0000000000     -6.418428189     -5.604673448     -0.000000000
       H     0.8473700000     0.0000000000     0.0000000000      8.111469669      1.358037019     -0.000000000
       H    -0.5477200000     0.6941400000     0.0000000000     -1.693041532      4.246636378     -0.000000000
