       3
Lattice="15.0 0.0 0.0 0.0 15.0 0.0 0.0 0.0 15.0" Properties=species:S:1:pos:R:3:forces:R:3 energy=        1.6143229603 pbc="T T T"
       O     0.0000000000     0.0000000000     0.0000000000      6.658764433      3.035763562     -0.000000000
       H     1.2894700000     0.0000000000     0.0000000000     -5.624138919     -0.652442212     -0.000000000
       H     0.0930000000     1.0273800000     0.0000000000     -1.034625462     -2.383321350     -0.000000000
