       3
Lattice="15.0 0.0 0.0 0.0 15.0 0.0 0.0 0.0 15.0" Properties=species:S:1:pos:R:3:forces:R:3 energy=        1.2504009398 pbc="T T T"
       O     0.0000000000     0.0000000000     0.0000000000      7.051845051     -8.692540183     -0.000000000
       H     1.1789500000     0.0000000000     0.0000000000     -5.545593635     -0.262661606     -0.000000000
       H    -0.1068100000     0.8406100000     0.0000000000     -1.506251416      8.955201790     -0.000000000
