       3
Lattice="15.0 0.0 0.0 0.0 15.0 0.0 0.0 0.0 15.0" Properties=species:S:1:pos:R:3:forces:R:3 energy=        2.5916640743 pbc="T T T"
       O     0.0000000000     0.0000000000     0.0000000000      4.886520545      5.735903490     -0.000000000
       H     1.1789500000     0.0000000000     0.0000000000     -5.322670915      0.022555939     -0.000000000
       H    -0.0983600000     1.3596100000     0.0000000000      0.436150371     -5.758459428     -0.000000000
