       3
Lattice="15.0 0.0 0.0 0.0 15.0 0.0 0.0 0.0 15.0" Properties=species:S:1:pos:R:3:forces:R:3 energy=        0.3619183809 pbc="T T T"
       O     0.0000000000     0.0000000000     0.0000000000     -2.527876500      2.508727275     -0.000000000
       H     0.9578900000     0.0000000000     0.0000000000     -0.120078802      0.966738999     -0.000000000
       H    -0.4660500000     0.9614100000     0.0000000000      2.647955302     -3.475466273     -0.000000000
