       3
Lattice="15.0 0.0 0.0 0.0 15.0 0.0 0.0 0.0 15.0" Properties=species:S:1:pos:R:3:forces:R:3 energy=        2.7866025687 pbc="T T T"
       O     0.0000000000     0.0000000000     0.0000000000      5.353012004      5.754275367     -0.000000000
       H     1.2894700000     0.0000000000     0.0000000000     -5.807741174      0.035729249     -0.000000000
       H    -0.0930500000     1.2861100000     0.0000000000      0.454729171     -5.790004565     -0.000000000
