       3
Lattice="15.0 0.0 0.0 0.0 15.0 0.0 0.0 0.0 15.0" Properties=species:S:1:pos:R:3:forces:R:3 energy=        5.6387744197 pbc="T T T"
       O     0.0000000000     0.0000000000     0.0000000000    -33.699263726      7.317626075     -0.000000000
       H     0.7000000000     0.0000000000     0.0000000000     37.684057497     -4.465906689     -0.000000000
       H     0.5053500000     1.1461700000     0.0000000000     -3.984793771     -2.851719386     -0.000000000
