       3
Lattice="15.0 0.0 0.0 0.0 15.0 0.0 0.0 0.0 15.0" Properties=species:S:1:pos:R:3:forces:R:3 energy=        2.5106117175 pbc="T T T"
       O     0.0000000000     0.0000000000     0.0000000000      3.699781606     -1.880455963     -0.000000000
       H     1.3263200000     0.0000000000     0.0000000000     -6.368999478      1.539204078     -0.000000000
       H    -0.7344100000     0.6709300000     0.0000000000      2.669217872      0.341251885     -0.000000000
