       3
Lattice="15.0 0.0 0.0 0.0 15.0 0.0 0.0 0.0 15.0" Properties=species:S:1:pos:R:3:forces:R:3 energy=        2.7195836407 pbc="T T T"
       O     0.0000000000     0.0000000000     0.0000000000     15.371250113    -18.314149087     -0.000000000
       H     1.2157900000     0.0000000000     0.0000000000     -6.467615215      1.036343371     -0.000000000
       H    -0.4107800000     0.6556200000     0.0000000000     -8.903634846     17.277805665     -0.000000000
