       3
Lattice="15.0 0.0 0.0 0.0 15.0 0.0 0.0 0.0 15.0" Properties=species:S:1:pos:R:3:forces:R:3 energy=        2.0183749234 pbc="T T T"
       O     0.0000000000     0.0000000000     0.0000000000    -17.700321263      4.587285287     -0.000000000
       H     0.7736800000     0.0000000000     0.0000000000     20.162596498     -2.931012399     -0.000000000
       H     0.1484800000     1.0208400000     0.0000000000     -2.462275235     -1.656272888     -0.000000000
