       3
Lattice="15.0 0.0 0.0 0.0 15.0 0.0 0.0 0.0 15.0" Properties=species:S:1:pos:R:3:forces:R:3 energy=        1.7334095203 pbc="T T T"
       O     0.0000000000     0.0000000000     0.0000000000      3.902045245     -1.043882414     -0.000000000
       H     1.2526300000     0.0000000000     0.0000000000     -6.347475324      1.366044210     -0.000000000
       H    -0.6161900000     0.7809100000     0.0000000000      2.445430027     -0.322161744     -0.000000000
