       3
Lattice="15.0 0.0 0.0 0.0 15.0 0.0 0.0 0.0 15.0" Properties=species:S:1:pos:R:3:forces:R:3 energy=        3.3289053417 pbc="T T T"
       O     0.0000000000     0.0000000000     0.0000000000     -1.808405905    -17.297337213     -0.000000000
       H     1.1421100000     0.0000000000     0.0000000000     -2.957774407     -3.491246529     -0.000000000
       H     0.3500000000     0.6899900000     0.0000000000      4.766180313     20.788583743     -0.000000000
