       3
Lattice="15.0 0.0 0.0 0.0 15.0 0.0 0.0 0.0 15.0" Properties=species:S:1:pos:R:3:forces:R:3 energy=        0.9801849923 pbc="T T T"
       O     0.0000000000     0.0000000000     0.0000000000      5.930680947     -3.348568286     -0.000000000
       H     1.1789500000     0.0000000000     0.0000000000     -5.950937084      0.861722858     -0.000000000
       H    -0.4017700000     0.8288000000     0.0000000000      0.020256137      2.486845428     -0.000000000
