       3
Lattice="15.0 0.0 0.0 0.0 15.0 0.0 0.0 0.0 15.0" Properties=species:S:1:pos:R:3:forces:R:3 energy=        2.1221876154 pbc="T T T"
       O     0.0000000000     0.0000000000     0.0000000000      7.550273689     -9.092203446     -0.000000000
       H     1.3263200000     0.0000000000     0.0000000000     -6.095195014      0.115332029     -0.000000000
       H    -0.1521600000     0.8336000000     0.0000000000     -1.455078726      8.976871469     -0.000000000
