       3
Lattice="15.0 0.0 0.0 0.0 15.0 0.0 0.0 0.0 15.0" Properties=species:S:1:pos:R:3:forces:R:3 energy=        1.2504084420 pbc="T T T"
       O     0.0000000000     0.0000000000     0.0000000000     -9.512048593      5.900062539     -0.000000000
       H     0.8473700000     0.0000000000     0.0000000000      9.073562322     -0.365445772     -0.000000000
       H    -0.1486100000     1.1695500000     0.0000000000      0.438486270     -5.534616768     -0.000000000
