       3
Lattice="15.0 0.0 0.0 0.0 15.0 0.0 0.0 0.0 15.0" Properties=species:S:1:pos:R:3:forces:R:3 energy=        0.1212607171 pbc="T T T"
       O     0.0000000000     0.0000000000     0.0000000000      3.118718908      0.024288297     -0.000000000
       H     1.0315800000     0.0000000000     0.0000000000     -2.890402628     -0.182225531     -0.000000000
       H    -0.1720100000     0.9423200000     0.0000000000     -0.228316331      0.157937285     -0.000000000
