       3
Lattice="15.0 0.0 0.0 0.0 15.0 0.0 0.0 0.0 15.0" Properties=species:S:1:pos:R:3:forces:R:3 energy=        1.8891755347 pbc="T T T"
       O     0.0000000000     0.0000000000     0.0000000000     -7.514058912      6.819745443     -0.000000000
       H     0.8473700000     0.0000000000     0.0000000000      9.409802714     -1.679501325     -0.000000000
       H     0.1803000000     1.2395900000     0.0000000000     -1.895743801     -5.140244118     -0.000000000
