       3
Lattice="15.0 0.0 0.0 0.0 15.0 0.0 0.0 0.0 15.0" Properties=species:S:1:pos:R:3:forces:R:3 energy=        3.8889308005 pbc="T T T"
       O     0.0000000000     0.0000000000     0.0000000000    -17.736303869      6.693155576     -0.000000000
       H     0.7736800000     0.0000000000     0.0000000000     20.110369603     -2.065025570     -0.000000000
       H     0.3501200000     1.3555100000     0.0000000000     -2.374065734     -4.628129954     -0.000000000
