       3
Lattice="15.0 0.0 0.0 0.0 15.0 0.0 0.0 0.0 15.0" Properties=species:S:1:pos:R:3:forces:R:3 energy=        1.7231450426 pbc="T T T"
       O     0.0000000000     0.0000000000     0.0000000000      1.520057424     -1.612276921     -0.000000000
       H     0.9947400000     0.0000000000     0.0000000000      0.831762447     -4.901501290     -0.000000000
       H     0.4605300000     0.7976500000     0.0000000000     -2.351819871      6.513778211     -0.000000000
