       3
Lattice="15.0 0.0 0.0 0.0 15.0 0.0 0.0 0.0 15.0" Properties=species:S:1:pos:R:3:forces:R:3 energy=        3.9163403018 pbc="T T T"
       O     0.0000000000     0.0000000000     0.0000000000     -2.403746409    -17.269640763     -0.000000000
       H     1.2526300000     0.0000000000     0.0000000000     -3.729648120     -2.969576342     -0.000000000
       H     0.3868400000     0.6700300000     0.0000000000      6.133394529     20.239217105     -0.000000000
