       3
Lattice="15.0 0.0 0.0 0.0 15.0 0.0 0.0 0.0 15.0" Properties=species:S:1:pos:R:3:forces:R:3 energy=        3.8604156817 pbc="T T T"
       O     0.0000000000     0.0000000000     0.0000000000      4.798973309      5.337510918     -0.000000000
       H     1.3631600000     0.0000000000     0.0000000000     -5.730876724      0.228850349     -0.000000000
       H    -0.1764700000     1.3888300000     0.0000000000      0.931903414     -5.566361319     -0.000000000
