       3
Lattice="15.0 0.0 0.0 0.0 15.0 0.0 0.0 0.0 15.0" Properties=species:S:1:pos:R:3:forces:R:3 energy=        3.2584546742 pbc="T T T"
       O     0.0000000000     0.0000000000     0.0000000000    -16.988921365      7.059963416     -0.000000000
       H     0.7736800000     0.0000000000     0.0000000000     20.249074102     -3.089323369     -0.000000000
       H     0.3784700000     1.1940900000     0.0000000000     -3.260152788     -3.970640047     -0.000000000
