       3
Lattice="15.0 0.0 0.0 0.0 15.0 0.0 0.0 0.0 15.0" Properties=species:S:1:pos:R:3:forces:R:3 energy=        2.4793711770 pbc="T T T"
       O     0.0000000000     0.0000000000     0.0000000000      3.410420109      0.836281574     -0.000000000
       H     1.4000000000     0.0000000000     0.0000000000     -5.931551883      0.977917595     -0.000000000
       H    -0.4995800000     0.9025400000     0.0000000000      2.521131773     -1.814199169     -0.000000000
