       3
Lattice="15.0 0.0 0.0 0.0 15.0 0.0 0.0 0.0 15.0" Properties=species:S:1:pos:R:3:forces:R:3 energy=        0.5940300830 pbc="T T T"
       O     0.0000000000     0.0000000000     0.0000000000     -1.511744426     -3.890618589     -0.000000000
       H     0.9210500000     0.0000000000     0.0000000000      1.443603630      1.678868062     -0.000000000
       H    -0.6800000000     0.6212300000     0.0000000000      0.068140745      2.211750527     -0.000000000
