       3
Lattice="15.0 0.0 0.0 0.0 15.0 0.0 0.0 0.0 15.0" Properties=species:S:1:pos:R:3:forces:R:3 energy=        1.2263208006 pbc="T T T"
       O     0.0000000000     0.0000000000     0.0000000000      5.907368229     -4.210588517     -0.000000000
       H     1.1421100000     0.0000000000     0.0000000000     -5.934361637      1.530157390     -0.000000000
       H    -0.6453700000     0.6571300000     0.0000000000      0.026993408      2.680431127     -0.000000000
