       3
Lattice="15.0 0.0 0.0 0.0 15.0 0.0 0.0 0.0 15.0" Properties=species:S:1:pos:R:3:forces:R:3 energy=        1.6611235891 pbc="T T T"
       O     0.0000000000     0.0000000000     0.0000000000      2.106638123      6.377838884     -0.000000000
       H     0.9578900000     0.0000000000     0.0000000000      0.959808844     -2.153520669     -0.000000000
       H     0.3784700000     1.1940900000     0.0000000000     -3.066446968     -4.224318215     -0.000000000
