       3
Lattice="15.0 0.0 0.0 0.0 15.0 0.0 0.0 0.0 15.0" Properties=species:S:1:pos:R:3:forces:R:3 energy=        4.9508904351 pbc="T T T"
       O     0.0000000000     0.0000000000     0.0000000000    -31.743671762    -17.061931319     -0.000000000
       H     0.7000000000     0.0000000000     0.0000000000     36.863653675     -1.819465408     -0.000000000
       H    -0.1389300000     0.7611000000     0.0000000000     -5.119981913     18.881396727     -0.000000000
