       3
Lattice="15.0 0.0 0.0 0.0 15.0 0.0 0.0 0.0 15.0" Properties=species:S:1:pos:R:3:forces:R:3 energy=        5.5424963782 pbc="T T T"
       O     0.0000000000     0.0000000000     0.0000000000      3.678896937    -36.583324108     -0.000000000
       H     1.3631600000     0.0000000000     0.0000000000     -5.595654065     -0.748052996     -0.000000000
       H     0.0631100000     0.6971500000     0.0000000000      1.916757180     37.331377104     -0.000000000
