       3
Lattice="15.0 0.0 0.0 0.0 15.0 0.0 0.0 0.0 15.0" Properties=species:S:1:pos:R:3:forces:R:3 energy=        1.7064671869 pbc="T T T"
       O     0.0000000000     0.0000000000     0.0000000000      7.290176759      3.565137344     -0.000000000
       H     1.1421100000     0.0000000000     0.0000000000     -3.637828686     -2.666998855     -0.000000000
       H     0.4833300000     0.9528400000     0.0000000000     -3.652348073     -0.898138540     -0.000000000
