       3
Lattice="15.0 0.0 0.0 0.0 15.0 0.0 0.0 0.0 15.0" Properties=species:S:1:pos:R:3:forces:R:3 energy=        3.4147850746 pbc="T T T"
       O     0.0000000000     0.0000000000     0.0000000000    -16.464723680      5.010005340     -0.000000000
       H     0.7736800000     0.0000000000     0.0000000000     21.005708622     -6.369430858     -0.000000000
       H     0.5342100000     0.9252800000     0.0000000000     -4.540984943      1.359425518     -0.000000000
