       3
Lattice="15.0 0.0 0.0 0.0 15.0 0.0 0.0 0.0 15.0" Properties=species:S:1:pos:R:3:forces:R:3 energy=        2.3170258848 pbc="T T T"
       O     0.0000000000     0.0000000000     0.0000000000      6.649013056      5.298649087     -0.000000000
       H     1.0684200000     0.0000000000     0.0000000000     -2.490106411     -2.698424795     -0.000000000
       H     0.6263200000     1.0848100000     0.0000000000     -4.158906645     -2.600224292     -0.000000000
