       3
Lattice="15.0 0.0 0.0 0.0 15.0 0.0 0.0 0.0 15.0" Properties=species:S:1:pos:R:3:forces:R:3 energy=        5.9601454817 pbc="T T T"
       O     0.0000000000     0.0000000000     0.0000000000     -7.091508913    -33.939325787     -0.000000000
       H     1.3263200000     0.0000000000     0.0000000000     -4.462401348     -2.092181935     -0.000000000
       H     0.2824000000     0.6405100000     0.0000000000     11.553910261     36.031507722     -0.000000000
