       3
Lattice="15.0 0.0 0.0 0.0 15.0 0.0 0.0 0.0 15.0" Properties=species:S:1:pos:R:3:forces:R:3 energy=        4.4963095623 pbc="T T T"
       O     0.0000000000     0.0000000000     0.0000000000    -24.763123847      7.126806782     -0.000000000
       H     0.7368400000     0.0000000000     0.0000000000     27.797626951     -2.917759333     -0.000000000
       H     0.4007300000     1.2643300000     0.0000000000     -3.034503155     -4.209047449     -0.000000000
