       3
Lattice="15.0 0.0 0.0 0.0 15.0 0.0 0.0 0.0 15.0" Properties=species:S:1:pos:R:3:forces:R:3 energy=        2.8504007816 pbc="T T T"
       O     0.0000000000     0.0000000000     0.0000000000      1.026251323      0.592468683     -0.000000000
       H     1.2894700000     0.0000000000     0.0000000000     -6.184565368      1.628949711     -0.000000000
       H    -0.8432100000     0.7703300000     0.0000000000      5.158313994     -2.221418393     -0.000000000
