       3
Lattice="15.0 0.0 0.0 0.0 15.0 0.0 0.0 0.0 15.0" Properties=species:S:1:pos:R:3:forces:R:3 energy=        2.0879178925 pbc="T T T"
       O     0.0000000000     0.0000000000     0.0000000000      0.372109560      3.976886545     -0.000000000
       H     1.0684200000     0.0000000000     0.0000000000     -3.864036146      1.133424930     -0.000000000
       H    -0.5785500000     1.1934800000     0.0000000000      3.491926638     -5.110311475     -0.000000000
