       3
Lattice="15.0 0.0 0.0 0.0 15.0 0.0 0.0 0.0 15.0" Properties=species:S:1:pos:R:3:forces:R:3 energy=        2.4180379620 pbc="T T T"
       O     0.0000000000     0.0000000000     0.0000000000     -6.973945731     -6.666226857     -0.000000000
       H     0.8842100000     0.0000000000     0.0000000000      7.610903004     -6.062769017     -0.000000000
       H     0.3833300000     0.7557100000     0.0000000000     -0.636957273     12.728995926     -0.000000000
