       3
Lattice="15.0 0.0 0.0 0.0 15.0 0.0 0.0 0.0 15.0" Properties=species:S:1:pos:R:3:forces:R:3 energy=        2.3593449670 pbc="T T T"
       O     0.0000000000     0.0000000000     0.0000000000     12.273090064    -13.311892850     -0.000000000
       H     1.2526300000     0.0000000000     0.0000000000     -6.524078570      1.057613295     -0.000000000
       H    -0.4303400000     0.6868500000     0.0000000000     -5.749011494     12.254279556     -0.000000000
