       3
Lattice="15.0 0.0 0.0 0.0 15.0 0.0 0.0 0.0 15.0" Properties=species:S:1:pos:R:3:forces:R:3 energy=        4.6649032091 pbc="T T T"
       O     0.0000000000     0.0000000000     0.0000000000     -8.742091895    -20.816115951     -0.000000000
       H     0.7368400000     0.0000000000     0.0000000000     25.997955087      1.337265478     -0.000000000
       H    -0.5163000000     0.5257100000     0.0000000000    -17.255863192     19.478850524     -0.000000000
