       3
Lattice="15.0 0.0 0.0 0.0 15.0 0.0 0.0 0.0 15.0" Properties=species:S:1:pos:R:3:forces:R:3 energy=        2.4168722126 pbc="T T T"
       O     0.0000000000     0.0000000000     0.0000000000    -11.272834097    -11.603818791     -0.000000000
       H     0.7736800000     0.0000000000     0.0000000000     18.575580111      1.356141035     -0.000000000
       H    -0.5357900000     0.6081800000     0.0000000000     -7.302746014     10.247677755     -0.000000000
