       3
Lattice="15.0 0.0 0.0 0.0 15.0 0.0 0.0 0.0 15.0" Properties=species:S:1:pos:R:3:forces:R:3 energy=        3.8626007179 pbc="T T T"
       O     0.0000000000     0.0000000000     0.0000000000    -14.303449383    -24.371664464     -0.000000000
       H     0.8105300000     0.0000000000     0.0000000000     14.627741286     -4.004886900     -0.000000000
       H     0.1060600000     0.7291700000     0.0000000000     -0.324291904     28.376551364     -0.000000000
