       3
Lattice="15.0 0.0 0.0 0.0 15.0 0.0 0.0 0.0 15.0" Properties=species:S:1:pos:R:3:forces:R:3 energy=        1.8988271548 pbc="T T T"
       O     0.0000000000     0.0000000000     0.0000000000      6.333307716      3.910944454     -0.000000000
       H     1.3263200000     0.0000000000     0.0000000000     -5.724597881     -0.387564777     -0.000000000
       H     0.0385700000     1.0677200000     0.0000000000     -0.608709835     -3.523379626     -0.000000000
