       3
Lattice="15.0 0.0 0.0 0.0 15.0 0.0 0.0 0.0 15.0" Properties=species:S:1:pos:R:3:forces:R:3 energy=        0.2607456259 pbc="T T T"
       O     0.0000000000     0.0000000000     0.0000000000     -0.337013368      1.601438688     -0.000000000
       H     0.9947400000     0.0000000000     0.0000000000     -1.883295594      0.927798183     -0.000000000
       H    -0.4499800000     0.9282600000     0.0000000000      2.220308962     -2.529236871     -0.000000000
