       3
Lattice="15.0 0.0 0.0 0.0 15.0 0.0 0.0 0.0 15.0" Properties=species:S:1:pos:R:3:forces:R:3 energy=        1.7419556887 pbc="T T T"
       O     0.0000000000     0.0000000000     0.0000000000    -17.755820094     -0.030440590     -0.000000000
       H     0.8105300000     0.0000000000     0.0000000000     12.877619797      2.032184083     -0.000000000
       H    -0.8266600000     0.6768700000     0.0000000000      4.878200297     -2.001743493     -0.000000000
