       3
Lattice="15.0 0.0 0.0 0.0 15.0 0.0 0.0 0.0 15.0" Properties=species:S:1:pos:R:3:forces:R:3 energy=        1.2599186880 pbc="T T T"
       O     0.0000000000     0.0000000000     0.0000000000     -1.016207818      6.527579385     -0.000000000
       H     0.9210500000     0.0000000000     0.0000000000      2.917440413     -1.534888531     -0.000000000
       H     0.1750000000     1.2031300000     0.0000000000     -1.901232595     -4.992690906     -0.000000000
