       3
Lattice="15.0 0.0 0.0 0.0 15.0 0.0 0.0 0.0 15.0" Properties=species:S:1:pos:R:3:forces:R:3 energy=        0.8658909397 pbc="T T T"
       O     0.0000000000     0.0000000000     0.0000000000    -12.991384995      0.693212780     -0.000000000
       H     0.8105300000     0.0000000000     0.0000000000     13.607322564     -0.712082835     -0.000000000
       H    -0.1720100000     0.9423200000     0.0000000000     -0.615937621      0.018870003     -0.000000000
