       3
Lattice="15.0 0.0 0.0 0.0 15.0 0.0 0.0 0.0 15.0" Properties=species:S:1:pos:R:3:forces:R:3 energy=        3.5920439668 pbc="T T T"
       O     0.0000000000     0.0000000000     0.0000000000    -11.076451705    -24.388991702     -0.000000000
       H     0.8473700000     0.0000000000     0.0000000000     10.197287195     -4.146210532     -0.000000000
       H     0.1453800000     0.7223600000     0.0000000000      0.879164510     28.535202234     -0.000000000
