       3
Lattice="15.0 0.0 0.0 0.0 15.0 0.0 0.0 0.0 15.0" Properties=species:S:1:pos:R:3:forces:R:3 energy=        1.2980249415 pbc="T T T"
       O     0.0000000000     0.0000000000     0.0000000000      1.752343232      4.047880188     -0.000000000
       H     1.1052600000     0.0000000000     0.0000000000     -4.728787302      0.890077562     -0.000000000
       H    -0.4560800000     1.0871600000     0.0000000000      2.976444071     -4.937957750     -0.000000000
