       3
Lattice="15.0 0.0 0.0 0.0 15.0 0.0 0.0 0.0 15.0" Properties=species:S:1:pos:R:3:forces:R:3 energy=        2.8437064323 pbc="T T T"
       O     0.0000000000     0.0000000000     0.0000000000      8.148079984      4.620227511     -0.000000000
       H     1.3631600000     0.0000000000     0.0000000000     -4.957012719     -1.336374179     -0.000000000
       H     0.4607700000     1.0450400000     0.0000000000     -3.191067265     -3.283853331     -0.000000000
