       3
Lattice="15.0 0.0 0.0 0.0 15.0 0.0 0.0 0.0 15.0" Properties=species:S:1:pos:R:3:forces:R:3 energy=        1.1840090845 pbc="T T T"
       O     0.0000000000     0.0000000000     0.0000000000      2.970224620      4.970211380     -0.000000000
       H     1.1052600000     0.0000000000     0.0000000000     -4.602388314      0.368762393     -0.000000000
       H    -0.2741900000     1.1466200000     0.0000000000      1.632163694     -5.338973774     -0.000000000
