       3
Lattice="15.0 0.0 0.0 0.0 15.0 0.0 0.0 0.0 15.0" Properties=species:S:1:pos:R:3:forces:R:3 energy=        1.4876535013 pbc="T T T"
       O     0.0000000000     0.0000000000     0.0000000000    -16.836353214     -0.354153378     -0.000000000
       H     0.8105300000     0.0000000000     0.0000000000     12.864895299      1.929209707     -0.000000000
       H    -0.7616100000     0.6957800000     0.0000000000      3.971457916     -1.575056329     -0.000000000
