       3
Lattice="15.0 0.0 0.0 0.0 15.0 0.0 0.0 0.0 15.0" Properties=species:S:1:pos:R:3:forces:R:3 energy=        0.4068059975 pbc="T T T"
       O     0.0000000000     0.0000000000     0.0000000000     -0.065902444     -5.692743800     -0.000000000
       H     0.9210500000     0.0000000000     0.0000000000      1.662265824      1.220463343     -0.000000000
       H    -0.5093400000     0.7227700000     0.0000000000     -1.596363431      4.472280457     -0.000000000
