       3
Lattice="15.0 0.0 0.0 0.0 15.0 0.0 0.0 0.0 15.0" Properties=species:S:1:pos:R:3:forces:R:3 energy=        2.6478943980 pbc="T T T"
       O     0.0000000000     0.0000000000     0.0000000000      7.909556934      5.357270781     -0.000000000
       H     1.3263200000     0.0000000000     0.0000000000     -5.280128805     -1.079021338     -0.000000000
       H     0.3562100000     1.1238500000     0.0000000000     -2.629428129     -4.278249443     -0.000000000
