       3
Lattice="15.0 0.0 0.0 0.0 15.0 0.0 0.0 0.0 15.0" Properties=species:S:1:pos:R:3:forces:R:3 energy=        0.8767985258 pbc="T T T"
       O     0.0000000000     0.0000000000     0.0000000000    -10.862342474      4.000546259     -0.000000000
       H     0.8473700000     0.0000000000     0.0000000000      8.787150088      0.551821117     -0.000000000
       H    -0.3717600000     1.0408600000     0.0000000000      2.075192386     -4.552367376     -0.000000000
