       3
Lattice="15.0 0.0 0.0 0.0 15.0 0.0 0.0 0.0 15.0" Properties=species:S:1:pos:R:3:forces:R:3 energy=        0.6284354193 pbc="T T T"
       O     0.0000000000     0.0000000000     0.0000000000      1.466982476      2.342358978     -0.000000000
       H     1.0684200000     0.0000000000     0.0000000000     -4.154988385      0.972726278     -0.000000000
       H    -0.4660500000     0.9614100000     0.0000000000      2.688005857     -3.315085256     -0.000000000
