       3
Lattice="15.0 0.0 0.0 0.0 15.0 0.0 0.0 0.0 15.0" Properties=species:S:1:pos:R:3:forces:R:3 energy=        1.8114817052 pbc="T T T"
       O     0.0000000000     0.0000000000     0.0000000000    -10.509467346      1.596503453     -0.000000000
       H     0.8842100000     0.0000000000     0.0000000000      4.879142709      2.029707132     -0.000000000
       H    -0.8519000000     0.8674200000     0.0000000000      5.630324585     -3.626210586     -0.000000000
