       3
Lattice="15.0 0.0 0.0 0.0 15.0 0.0 0.0 0.0 15.0" Properties=species:S:1:pos:R:3:forces:R:3 energy=        1.6453554317 pbc="T T T"
       O     0.0000000000     0.0000000000     0.0000000000      4.541501837      0.022894245     -0.000000000
       H     1.0684200000     0.0000000000     0.0000000000     -1.696069830     -3.985769197     -0.000000000
       H     0.4789500000     0.8295600000     0.0000000000     -2.845432007      3.962874952     -0.000000000
