       3
Lattice="15.0 0.0 0.0 0.0 15.0 0.0 0.0 0.0 15.0" Properties=species:S:1:pos:R:3:forces:R:3 energy=        0.5724501260 pbc="T T T"
       O     0.0000000000     0.0000000000     0.0000000000      3.668151212     -4.285459745     -0.000000000
       H     1.0315800000     0.0000000000     0.0000000000     -2.272005798     -1.650491760     -0.000000000
       H     0.0797100000     0.8806100000     0.0000000000     -1.396145414      5.935951505     -0.000000000
