       3
Lattice="15.0 0.0 0.0 0.0 15.0 0.0 0.0 0.0 15.0" Properties=species:S:1:pos:R:3:forces:R:3 energy=        2.1360043490 pbc="T T T"
       O     0.0000000000     0.0000000000     0.0000000000      3.907704503      6.136324817     -0.000000000
       H     0.9947400000     0.0000000000     0.0000000000     -0.728889218     -2.031262856     -0.000000000
       H     0.4686000000     1.2407800000     0.0000000000     -3.178815284     -4.105061909     -0.000000000
