       3
Lattice="15.0 0.0 0.0 0.0 15.0 0.0 0.0 0.0 15.0" Properties=species:S:1:pos:R:3:forces:R:3 energy=        1.9749121303 pbc="T T T"
       O     0.0000000000     0.0000000000     0.0000000000      1.152492805      4.687951428     -0.000000000
       H     1.0684200000     0.0000000000     0.0000000000     -3.815871802      0.815612672     -0.000000000
       H    -0.4461200000     1.2490400000     0.0000000000      2.663378997     -5.503564100     -0.000000000
