       3
Lattice="15.0 0.0 0.0 0.0 15.0 0.0 0.0 0.0 15.0" Properties=species:S:1:pos:R:3:forces:R:3 energy=        3.2355548099 pbc="T T T"
       O     0.0000000000     0.0000000000     0.0000000000     11.408493174    -13.622317451     -0.000000000
       H     1.4000000000     0.0000000000     0.0000000000     -6.182297911      0.915501619     -0.000000000
       H    -0.3925300000     0.7091400000     0.0000000000     -5.226195263     12.706815780     -0.000000000
