       3
Lattice="15.0 0.0 0.0 0.0 15.0 0.0 0.0 0.0 15.0" Properties=species:S:1:pos:R:3:forces:R:3 energy=        2.5111054001 pbc="T T T"
       O     0.0000000000     0.0000000000     0.0000000000      7.924508215      3.265735839     -0.000000000
       H     1.3263200000     0.0000000000     0.0000000000     -4.707734020     -1.763535763     -0.000000000
       H     0.4833300000     0.9528400000     0.0000000000     -3.216774195     -1.502200076     -0.000000000
