       3
Lattice="15.0 0.0 0.0 0.0 15.0 0.0 0.0 0.0 15.0" Properties=species:S:1:pos:R:3:forces:R:3 energy=        3.2953184205 pbc="T T T"
       O     0.0000000000     0.0000000000     0.0000000000     18.684078659    -16.727550556     -0.000000000
       H     1.2526300000     0.0000000000     0.0000000000     -6.797384239      1.396768341     -0.000000000
       H    -0.5421100000     0.5519900000     0.0000000000    -11.886694420     15.330782215     -0.000000000
