       3
Lattice="15.0 0.0 0.0 0.0 15.0 0.0 0.0 0.0 15.0" Properties=species:S:1:pos:R:3:forces:R:3 energy=        1.8536137907 pbc="T T T"
       O     0.0000000000     0.0000000000     0.0000000000      6.726563324     -5.399716937     -0.000000000
       H     1.3263200000     0.0000000000     0.0000000000     -6.002891493     -0.022936616     -0.000000000
       H    -0.1114500000     0.8771600000     0.0000000000     -0.723671831      5.422653554     -0.000000000
