       3
Lattice="15.0 0.0 0.0 0.0 15.0 0.0 0.0 0.0 15.0" Properties=species:S:1:pos:R:3:forces:R:3 energy=        3.2608962566 pbc="T T T"
       O     0.0000000000     0.0000000000     0.0000000000    -22.694985132      4.501585596     -0.000000000
       H     0.7736800000     0.0000000000     0.0000000000     19.608326507      1.138859473     -0.000000000
       H    -0.5130900000     1.2230600000     0.0000000000      3.086658676     -5.640445069     -0.000000000
