       3
Lattice="15.0 0.0 0.0 0.0 15.0 0.0 0.0 0.0 15.0" Properties=species:S:1:pos:R:3:forces:R:3 energy=        2.4008205561 pbc="T T T"
       O     0.0000000000     0.0000000000     0.0000000000      8.845284455     -6.467887752     -0.000000000
       H     1.2894700000     0.0000000000     0.0000000000     -6.657835441      1.502229849     -0.000000000
       H    -0.6528100000     0.5963800000     0.0000000000     -2.187449065      4.965657955     -0.000000000
