       3
Lattice="15.0 0.0 0.0 0.0 15.0 0.0 0.0 0.0 15.0" Properties=species:S:1:pos:R:3:forces:R:3 energy=        2.1193796752 pbc="T T T"
       O     0.0000000000     0.0000000000     0.0000000000      0.072242325      5.370741105     -0.000000000
       H     0.9947400000     0.0000000000     0.0000000000     -1.349505529      0.328128197     -0.000000000
       H    -0.2514000000     1.3772400000     0.0000000000      1.277263204     -5.698869302     -0.000000000
