       3
Lattice="15.0 0.0 0.0 0.0 15.0 0.0 0.0 0.0 15.0" Properties=species:S:1:pos:R:3:forces:R:3 energy=        1.5648864353 pbc="T T T"
       O     0.0000000000     0.0000000000     0.0000000000     -5.076976181      4.851163900     -0.000000000
       H     0.9210500000     0.0000000000     0.0000000000      2.424664091      0.824318431     -0.000000000
       H    -0.4337200000     1.2143400000     0.0000000000      2.652312090     -5.675482331     -0.000000000
