       3
Lattice="15.0 0.0 0.0 0.0 15.0 0.0 0.0 0.0 15.0" Properties=species:S:1:pos:R:3:forces:R:3 energy=        4.2289792027 pbc="T T T"
       O     0.0000000000     0.0000000000     0.0000000000     -1.829567431    -34.927833247     -0.000000000
       H     1.0315800000     0.0000000000     0.0000000000     -1.703236938     -2.685631751     -0.000000000
       H     0.1381100000     0.6862400000     0.0000000000      3.532804318     37.613464998     -0.000000000
