       3
Lattice="15.0 0.0 0.0 0.0 15.0 0.0 0.0 0.0 15.0" Properties=species:S:1:pos:R:3:forces:R:3 energy=        2.0270443267 pbc="T T T"
       O     0.0000000000     0.0000000000     0.0000000000     -5.947570069      5.937496070     -0.000000000
       H     0.8473700000     0.0000000000     0.0000000000     10.056167709     -4.029562355     -0.000000000
       H     0.4607700000     1.0450400000     0.0000000000     -4.108597640     -1.907933767     -0.000000000
