       3
Lattice="15.0 0.0 0.0 0.0 15.0 0.0 0.0 0.0 15.0" Properties=species:S:1:pos:R:3:forces:R:3 energy=        1.1659895578 pbc="T T T"
       O     0.0000000000     0.0000000000     0.0000000000      4.878189292      3.179760731     -0.000000000
       H     1.0315800000     0.0000000000     0.0000000000     -1.394529783     -3.192839373     -0.000000000
       H     0.4161800000     0.9439000000     0.0000000000     -3.483659457      0.013078642     -0.000000000
