       3
Lattice="15.0 0.0 0.0 0.0 15.0 0.0 0.0 0.0 15.0" Properties=species:S:1:pos:R:3:forces:R:3 energy=        1.0528729065 pbc="T T T"
       O     0.0000000000     0.0000000000     0.0000000000     -9.379717964      5.604528284     -0.000000000
       H     0.8473700000     0.0000000000     0.0000000000      9.061747275     -0.450472707     -0.000000000
       H    -0.1439600000     1.1330000000     0.0000000000      0.317970689     -5.154055576     -0.000000000
