       3
Lattice="15.0 0.0 0.0 0.0 15.0 0.0 0.0 0.0 15.0" Properties=species:S:1:pos:R:3:forces:R:3 energy=        4.0488103820 pbc="T T T"
       O     0.0000000000     0.0000000000     0.0000000000     22.936676811    -22.997492531     -0.000000000
       H     1.2526300000     0.0000000000     0.0000000000     -6.793692185      1.308450186     -0.000000000
       H    -0.4870800000     0.5528900000     0.0000000000    -16.142984626     21.689042345     -0.000000000
