       3
Lattice="15.0 0.0 0.0 0.0 15.0 0.0 0.0 0.0 15.0" Properties=species:S:1:pos:R:3:forces:R:3 energy=        2.7212531654 pbc="T T T"
       O     0.0000000000     0.0000000000     0.0000000000      8.407370564      4.193355279     -0.000000000
       H     1.2894700000     0.0000000000     0.0000000000     -4.591860568     -1.919883489     -0.000000000
       H     0.5710600000     0.9891000000     0.0000000000     -3.815509996     -2.273471790     -0.000000000
