       3
Lattice="15.0 0.0 0.0 0.0 15.0 0.0 0.0 0.0 15.0" Properties=species:S:1:pos:R:3:forces:R:3 energy=        4.5163454854 pbc="T T T"
       O     0.0000000000     0.0000000000     0.0000000000     12.844692075    -36.310935088     -0.000000000
       H     1.2157900000     0.0000000000     0.0000000000     -5.983316287     -0.119714682     -0.000000000
       H    -0.1257000000     0.6886200000     0.0000000000     -6.861375788     36.430649770     -0.000000000
