       3
Lattice="15.0 0.0 0.0 0.0 15.0 0.0 0.0 0.0 15.0" Properties=species:S:1:pos:R:3:forces:R:3 energy=        2.5072892209 pbc="T T T"
       O     0.0000000000     0.0000000000     0.0000000000    -11.099695311      0.810894952     -0.000000000
       H     0.8842100000     0.0000000000     0.0000000000      4.926091024      2.249974364     -0.000000000
       H    -0.9977000000     0.8169100000     0.0000000000      6.173604339     -3.060869317     -0.000000000
