       3
Lattice="15.0 0.0 0.0 0.0 15.0 0.0 0.0 0.0 15.0" Properties=species:S:1:pos:R:3:forces:R:3 energy=        0.6239647628 pbc="T T T"
       O     0.0000000000     0.0000000000     0.0000000000      3.748003646     -1.423216932     -0.000000000
       H     1.0315800000     0.0000000000     0.0000000000     -1.975578855     -2.187485369     -0.000000000
       H     0.1817300000     0.9029400000     0.0000000000     -1.772424791      3.610702301     -0.000000000
