       3
Lattice="15.0 0.0 0.0 0.0 15.0 0.0 0.0 0.0 15.0" Properties=species:S:1:pos:R:3:forces:R:3 energy=        2.3358538945 pbc="T T T"
       O     0.0000000000     0.0000000000     0.0000000000      7.310300073      5.187881231     -0.000000000
       H     1.3263200000     0.0000000000     0.0000000000     -5.471311036     -0.808375579     -0.000000000
       H     0.2253400000     1.1196600000     0.0000000000     -1.838989038     -4.379505652     -0.000000000
