       3
Lattice="15.0 0.0 0.0 0.0 15.0 0.0 0.0 0.0 15.0" Properties=species:S:1:pos:R:3:forces:R:3 energy=        0.1736617403 pbc="T T T"
       O     0.0000000000     0.0000000000     0.0000000000     -1.604557643      0.238012069     -0.000000000
       H     0.9578900000     0.0000000000     0.0000000000     -0.269647862      1.053381668     -0.000000000
       H    -0.4817400000     0.8703100000     0.0000000000      1.874205506     -1.291393737     -0.000000000
