       3
Lattice="15.0 0.0 0.0 0.0 15.0 0.0 0.0 0.0 15.0" Properties=species:S:1:pos:R:3:forces:R:3 energy=        2.2501762225 pbc="T T T"
       O     0.0000000000     0.0000000000     0.0000000000      3.628523654      2.351473440     -0.000000000
       H     1.3631600000     0.0000000000     0.0000000000     -6.013830771      0.775797629     -0.000000000
       H    -0.4133200000     0.9852400000     0.0000000000      2.385307065     -3.127271070     -0.000000000
