       3
Lattice="15.0 0.0 0.0 0.0 15.0 0.0 0.0 0.0 15.0" Properties=species:S:1:pos:R:3:forces:R:3 energy=        3.1937070153 pbc="T T T"
       O     0.0000000000     0.0000000000     0.0000000000     -0.521179826      0.687266792     -0.000000000
       H     1.1421100000     0.0000000000     0.0000000000     -5.264935944      1.916923582     -0.000000000
       H    -1.0262100000     0.8402500000     0.0000000000      5.786115770     -2.604190323     -0.000000000
