       3
Lattice="15.0 0.0 0.0 0.0 15.0 0.0 0.0 0.0 15.0" Properties=species:S:1:pos:R:3:forces:R:3 energy=        1.5130711889 pbc="T T T"
       O     0.0000000000     0.0000000000     0.0000000000      5.399246837      4.523182153     -0.000000000
       H     1.0315800000     0.0000000000     0.0000000000     -1.354855020     -3.244979005     -0.000000000
       H     0.5000000000     0.9857000000     0.0000000000     -4.044391816     -1.278203148     -0.000000000
