       3
Lattice="15.0 0.0 0.0 0.0 15.0 0.0 0.0 0.0 15.0" Properties=species:S:1:pos:R:3:forces:R:3 energy=        2.3211199984 pbc="T T T"
       O     0.0000000000     0.0000000000     0.0000000000    -15.880116971    -11.817886576     -0.000000000
       H     0.7736800000     0.0000000000     0.0000000000     19.538631581     -1.302202094     -0.000000000
       H    -0.1455500000     0.7973500000     0.0000000000     -3.658514661     13.120088721     -0.000000000
