       3
Lattice="15.0 0.0 0.0 0.0 15.0 0.0 0.0 0.0 15.0" Properties=species:S:1:pos:R:3:forces:R:3 energy=        2.1778767917 pbc="T T T"
       O     0.0000000000     0.0000000000     0.0000000000      2.225132045      5.742965336     -0.000000000
       H     1.0315800000     0.0000000000     0.0000000000     -2.610696657     -0.036880795     -0.000000000
       H    -0.1010200000     1.3963500000     0.0000000000      0.385564612     -5.706084541     -0.000000000
