       3
Lattice="15.0 0.0 0.0 0.0 15.0 0.0 0.0 0.0 15.0" Properties=species:S:1:pos:R:3:forces:R:3 energy=        5.3459351817 pbc="T T T"
       O     0.0000000000     0.0000000000     0.0000000000    -34.646833804      2.439165120     -0.000000000
       H     0.7000000000     0.0000000000     0.0000000000     38.295397366     -7.724509565     -0.000000000
       H     0.4333300000     0.8542700000     0.0000000000     -3.648563561      5.285344445     -0.000000000
