       3
Lattice="15.0 0.0 0.0 0.0 15.0 0.0 0.0 0.0 15.0" Properties=species:S:1:pos:R:3:forces:R:3 energy=        5.5303816133 pbc="T T T"
       O     0.0000000000     0.0000000000     0.0000000000    -40.113241590      4.381785091     -0.000000000
       H     0.7000000000     0.0000000000     0.0000000000     37.053530041      1.251045858     -0.000000000
       H    -0.5273400000     1.2570300000     0.0000000000      3.059711548     -5.632830949     -0.000000000
