       3
Lattice="15.0 0.0 0.0 0.0 15.0 0.0 0.0 0.0 15.0" Properties=species:S:1:pos:R:3:forces:R:3 energy=        3.2445752374 pbc="T T T"
       O     0.0000000000     0.0000000000     0.0000000000     13.185640004    -13.120438905     -0.000000000
       H     1.3631600000     0.0000000000     0.0000000000     -6.430509654      1.227306132     -0.000000000
       H    -0.5020800000     0.6363000000     0.0000000000     -6.755130350     11.893132773     -0.000000000
