       3
Lattice="15.0 0.0 0.0 0.0 15.0 0.0 0.0 0.0 15.0" Properties=species:S:1:pos:R:3:forces:R:3 energy=        1.2427290568 pbc="T T T"
       O     0.0000000000     0.0000000000     0.0000000000      1.109642831      6.080216326     -0.000000000
       H     0.9947400000     0.0000000000     0.0000000000     -1.325400706     -0.258062569     -0.000000000
       H    -0.0903900000     1.2493600000     0.0000000000      0.215757926     -5.822153706     -0.000000000
