       3
Lattice="15.0 0.0 0.0 0.0 15.0 0.0 0.0 0.0 15.0" Properties=species:S:1:pos:R:3:forces:R:3 energy=        2.6204132574 pbc="T T T"
       O     0.0000000000     0.0000000000     0.0000000000      4.079669682      5.466879686     -0.000000000
       H     1.1421100000     0.0000000000     0.0000000000     -4.956824925      0.192236486     -0.000000000
       H    -0.1764700000     1.3888300000     0.0000000000      0.877155192     -5.659116172     -0.000000000
