       3
Lattice="15.0 0.0 0.0 0.0 15.0 0.0 0.0 0.0 15.0" Properties=species:S:1:pos:R:3:forces:R:3 energy=        0.8766505911 pbc="T T T"
       O     0.0000000000     0.0000000000     0.0000000000      4.545550915      0.687499683     -0.000000000
       H     1.1789500000     0.0000000000     0.0000000000     -5.764346589      0.602371188     -0.000000000
       H    -0.3345900000     0.9367800000     0.0000000000      1.218795674     -1.289870872     -0.000000000
