       3
Lattice="15.0 0.0 0.0 0.0 15.0 0.0 0.0 0.0 15.0" Properties=species:S:1:pos:R:3:forces:R:3 energy=        0.9638159150 pbc="T T T"
       O     0.0000000000     0.0000000000     0.0000000000    -14.109639432      3.207965952     -0.000000000
       H     0.8105300000     0.0000000000     0.0000000000     13.550305857     -0.198440047     -0.000000000
       H    -0.2399100000     1.0032900000     0.0000000000      0.559333575     -3.009525905     -0.000000000
