       3
Lattice="15.0 0.0 0.0 0.0 15.0 0.0 0.0 0.0 15.0" Properties=species:S:1:pos:R:3:forces:R:3 energy=        0.5402055914 pbc="T T T"
       O     0.0000000000     0.0000000000     0.0000000000     -8.254835323     -2.842458011     -0.000000000
       H     0.8473700000     0.0000000000     0.0000000000      8.392082623      0.894743397     -0.000000000
       H    -0.4460500000     0.8058400000     0.0000000000     -0.137247300      1.947714614     -0.000000000
