       3
Lattice="15.0 0.0 0.0 0.0 15.0 0.0 0.0 0.0 15.0" Properties=species:S:1:pos:R:3:forces:R:3 energy=        1.4309509023 pbc="T T T"
       O     0.0000000000     0.0000000000     0.0000000000    -19.510909213      0.046226400     -0.000000000
       H     0.7736800000     0.0000000000     0.0000000000     19.321459959      0.142356958     -0.000000000
       H    -0.3221900000     0.9020800000     0.0000000000      0.189449255     -0.188583307     -0.000000000
