       3
Lattice="15.0 0.0 0.0 0.0 15.0 0.0 0.0 0.0 15.0" Properties=species:S:1:pos:R:3:forces:R:3 energy=        2.8058159461 pbc="T T T"
       O     0.0000000000     0.0000000000     0.0000000000      3.196107555    -12.726598166     -0.000000000
       H     1.2894700000     0.0000000000     0.0000000000     -4.925865795     -1.704147983     -0.000000000
       H     0.2448900000     0.7726500000     0.0000000000      1.729758239     14.430746149     -0.000000000
