       3
Lattice="15.0 0.0 0.0 0.0 15.0 0.0 0.0 0.0 15.0" Properties=species:S:1:pos:R:3:forces:R:3 energy=        3.6149563430 pbc="T T T"
       O     0.0000000000     0.0000000000     0.0000000000      0.437645313      0.422906046     -0.000000000
       H     1.3631600000     0.0000000000     0.0000000000     -5.911520049      1.627280241     -0.000000000
       H    -0.9121800000     0.7468900000     0.0000000000      5.473874787     -2.050186339     -0.000000000
