       3
Lattice="15.0 0.0 0.0 0.0 15.0 0.0 0.0 0.0 15.0" Properties=species:S:1:pos:R:3:forces:R:3 energy=        3.5562150805 pbc="T T T"
       O     0.0000000000     0.0000000000     0.0000000000     -2.854047521    -17.012101774     -0.000000000
       H     1.1421100000     0.0000000000     0.0000000000     -2.613752723     -3.862686522     -0.000000000
       H     0.3868400000     0.6700300000     0.0000000000      5.467800244     20.874788296     -0.000000000
