       3
Lattice="15.0 0.0 0.0 0.0 15.0 0.0 0.0 0.0 15.0" Properties=species:S:1:pos:R:3:forces:R:3 energy=        0.5269984690 pbc="T T T"
       O     0.0000000000     0.0000000000     0.0000000000      5.349379753      0.381296527     -0.000000000
       H     1.1052600000     0.0000000000     0.0000000000     -4.245104925     -0.974991575     -0.000000000
       H     0.0345800000     0.9572700000     0.0000000000     -1.104274879      0.593695048     -0.000000000
