       3
Lattice="15.0 0.0 0.0 0.0 15.0 0.0 0.0 0.0 15.0" Properties=species:S:1:pos:R:3:forces:R:3 energy=        2.2688297310 pbc="T T T"
       O     0.0000000000     0.0000000000     0.0000000000     -8.760851033      3.946000948     -0.000000000
       H     0.8842100000     0.0000000000     0.0000000000      5.293631988      1.289302040     -0.000000000
       H    -0.5946200000     1.2266400000     0.0000000000      3.467219045     -5.235302989     -0.000000000
