       3
Lattice="15.0 0.0 0.0 0.0 15.0 0.0 0.0 0.0 15.0" Properties=species:S:1:pos:R:3:forces:R:3 energy=        1.9618931338 pbc="T T T"
       O     0.0000000000     0.0000000000     0.0000000000     -2.569647536      4.283985422     -0.000000000
       H     0.8842100000     0.0000000000     0.0000000000      6.997323909     -5.166550269     -0.000000000
       H     0.5342100000     0.9252800000     0.0000000000     -4.427676424      0.882564847     -0.000000000
