       3
Lattice="15.0 0.0 0.0 0.0 15.0 0.0 0.0 0.0 15.0" Properties=species:S:1:pos:R:3:forces:R:3 energy=        3.5911722746 pbc="T T T"
       O     0.0000000000     0.0000000000     0.0000000000    -27.442473824      6.610460786     -0.000000000
       H     0.7368400000     0.0000000000     0.0000000000     27.426863981     -0.698738237     -0.000000000
       H    -0.0903900000     1.2493600000     0.0000000000      0.015609843     -5.911722497     -0.000000000
