       3
Lattice="15.0 0.0 0.0 0.0 15.0 0.0 0.0 0.0 15.0" Properties=species:S:1:pos:R:3:forces:R:3 energy=        3.6492097255 pbc="T T T"
       O     0.0000000000     0.0000000000     0.0000000000     15.388510348    -11.891214987     -0.000000000
       H     1.3631600000     0.0000000000     0.0000000000     -6.599003328      1.479188280     -0.000000000
       H    -0.6271300000     0.5134900000     0.0000000000     -8.789507071     10.412026707     -0.000000000
