       3
Lattice="15.0 0.0 0.0 0.0 15.0 0.0 0.0 0.0 15.0" Properties=species:S:1:pos:R:3:forces:R:3 energy=        2.6345151800 pbc="T T T"
       O     0.0000000000     0.0000000000     0.0000000000      6.101057801      6.017332666     -0.000000000
       H     1.1789500000     0.0000000000     0.0000000000     -5.188230078     -0.473262925     -0.000000000
       H     0.1228900000     1.3576100000     0.0000000000     -0.912827722     -5.544069690     -0.000000000
