       3
Lattice="15.0 0.0 0.0 0.0 15.0 0.0 0.0 0.0 15.0" Properties=species:S:1:pos:R:3:forces:R:3 energy=        2.6172495392 pbc="T T T"
       O     0.0000000000     0.0000000000     0.0000000000      2.383944997      2.032044935     -0.000000000
       H     1.3631600000     0.0000000000     0.0000000000     -5.998975598      1.124830808     -0.000000000
       H    -0.5868300000     0.9366100000     0.0000000000      3.615030601     -3.156875742     -0.000000000
