       3
Lattice="15.0 0.0 0.0 0.0 15.0 0.0 0.0 0.0 15.0" Properties=species:S:1:pos:R:3:forces:R:3 energy=        1.7497129664 pbc="T T T"
       O     0.0000000000     0.0000000000     0.0000000000      5.472833695      5.846319464     -0.000000000
       H     1.1789500000     0.0000000000     0.0000000000     -5.305546743     -0.276192094     -0.000000000
       H    -0.0219500000     1.2155900000     0.0000000000     -0.167286952     -5.570127370     -0.000000000
