       3
Lattice="15.0 0.0 0.0 0.0 15.0 0.0 0.0 0.0 15.0" Properties=species:S:1:pos:R:3:forces:R:3 energy=        1.3404194183 pbc="T T T"
       O     0.0000000000     0.0000000000     0.0000000000      4.483536752      6.243703803     -0.000000000
       H     1.0315800000     0.0000000000     0.0000000000     -2.268918878     -1.442265062     -0.000000000
       H     0.2398800000     1.1918900000     0.0000000000     -2.214617874     -4.801438690     -0.000000000
