       3
Lattice="15.0 0.0 0.0 0.0 15.0 0.0 0.0 0.0 15.0" Properties=species:S:1:pos:R:3:forces:R:3 energy=        1.6539060873 pbc="T T T"
       O     0.0000000000     0.0000000000     0.0000000000    -17.704087931     -3.908857283     -0.000000000
       H     0.7736800000     0.0000000000     0.0000000000     19.557610856     -1.063445125     -0.000000000
       H    -0.1587800000     0.8698400000     0.0000000000     -1.853522925      4.972302408     -0.000000000
