       3
Lattice="15.0 0.0 0.0 0.0 15.0 0.0 0.0 0.0 15.0" Properties=species:S:1:pos:R:3:forces:R:3 energy=        3.3494283513 pbc="T T T"
       O     0.0000000000     0.0000000000     0.0000000000    -18.367730285     -0.152548302     -0.000000000
       H     0.7736800000     0.0000000000     0.0000000000     21.354730179     -7.050625371     -0.000000000
       H     0.4166700000     0.8214200000     0.0000000000     -2.986999894      7.203173724     -0.000000000
