       3
Lattice="15.0 0.0 0.0 0.0 15.0 0.0 0.0 0.0 15.0" Properties=species:S:1:pos:R:3:forces:R:3 energy=        3.5816754192 pbc="T T T"
       O     0.0000000000     0.0000000000     0.0000000000     20.673391016    -31.517013433     -0.000000000
       H     0.9578900000     0.0000000000     0.0000000000     -0.835341887      0.997174138     -0.000000000
       H    -0.4032300000     0.5722000000     0.0000000000    -19.838049129     30.519839347     -0.000000000
