       3
Lattice="15.0 0.0 0.0 0.0 15.0 0.0 0.0 0.0 15.0" Properties=species:S:1:pos:R:3:forces:R:3 energy=        4.6216723006 pbc="T T T"
       O     0.0000000000     0.0000000000     0.0000000000    -40.320631702      4.203607198     -0.000000000
       H     0.7000000000     0.0000000000     0.0000000000     36.862403964      1.263089323     -0.000000000
       H    -0.5303400000     1.0940200000     0.0000000000      3.458227738     -5.466696469     -0.000000000
