       3
Lattice="15.0 0.0 0.0 0.0 15.0 0.0 0.0 0.0 15.0" Properties=species:S:1:pos:R:3:forces:R:3 energy=        1.4661471974 pbc="T T T"
       O     0.0000000000     0.0000000000     0.0000000000    -19.868255646     -0.528110906     -0.000000000
       H     0.7736800000     0.0000000000     0.0000000000     19.171095861      0.689524942     -0.000000000
       H    -0.4178400000     0.8619500000     0.0000000000      0.697159785     -0.161414036     -0.000000000
