       3
Lattice="15.0 0.0 0.0 0.0 15.0 0.0 0.0 0.0 15.0" Properties=species:S:1:pos:R:3:forces:R:3 energy=        2.1332367361 pbc="T T T"
       O     0.0000000000     0.0000000000     0.0000000000      6.529767035     -0.050139364     -0.000000000
       H     1.3631600000     0.0000000000     0.0000000000     -5.221486748     -1.090580252     -0.000000000
       H     0.2395600000     0.9274500000     0.0000000000     -1.308280339      1.140719615     -0.000000000
