       3
Lattice="15.0 0.0 0.0 0.0 15.0 0.0 0.0 0.0 15.0" Properties=species:S:1:pos:R:3:forces:R:3 energy=        2.5676408832 pbc="T T T"
       O     0.0000000000     0.0000000000     0.0000000000     18.067255396    -16.496671811     -0.000000000
       H     1.1421100000     0.0000000000     0.0000000000     -6.181415663      1.414391308     -0.000000000
       H    -0.5421100000     0.5519900000     0.0000000000    -11.885839733     15.082280555     -0.000000000
