       3
Lattice="15.0 0.0 0.0 0.0 15.0 0.0 0.0 0.0 15.0" Properties=species:S:1:pos:R:3:forces:R:3 energy=        3.2865588603 pbc="T T T"
       O     0.0000000000     0.0000000000     0.0000000000      8.254772845      4.706249155     -0.000000000
       H     1.4000000000     0.0000000000     0.0000000000     -4.795317199     -1.300791535     -0.000000000
       H     0.5333300000     1.0514200000     0.0000000000     -3.459455646     -3.405457672     -0.000000000
