       3
Lattice="15.0 0.0 0.0 0.0 15.0 0.0 0.0 0.0 15.0" Properties=species:S:1:pos:R:3:forces:R:3 energy=        3.1075814439 pbc="T T T"
       O     0.0000000000     0.0000000000     0.0000000000      7.179099085      5.927640205     -0.000000000
       H     1.2526300000     0.0000000000     0.0000000000     -5.479232917     -0.688579547     -0.000000000
       H     0.2689600000     1.3363600000     0.0000000000     -1.699866169     -5.239060658     -0.000000000
