       3
Lattice="15.0 0.0 0.0 0.0 15.0 0.0 0.0 0.0 15.0" Properties=species:S:1:pos:R:3:forces:R:3 energy=        2.2551039542 pbc="T T T"
       O     0.0000000000     0.0000000000     0.0000000000      5.595193735      5.695536431     -0.000000000
       H     1.0315800000     0.0000000000     0.0000000000     -1.732375881     -2.498128257     -0.000000000
       H     0.5833300000     1.1499800000     0.0000000000     -3.862817854     -3.197408174     -0.000000000
