       3
Lattice="15.0 0.0 0.0 0.0 15.0 0.0 0.0 0.0 15.0" Properties=species:S:1:pos:R:3:forces:R:3 energy=        2.4950085864 pbc="T T T"
       O     0.0000000000     0.0000000000     0.0000000000      5.467590185      5.987230331     -0.000000000
       H     1.0684200000     0.0000000000     0.0000000000     -3.304198789     -1.164206551     -0.000000000
       H     0.3501200000     1.3555100000     0.0000000000     -2.163391344     -4.823023780     -0.000000000
