       3
Lattice="15.0 0.0 0.0 0.0 15.0 0.0 0.0 0.0 15.0" Properties=species:S:1:pos:R:3:forces:R:3 energy=        2.4851790637 pbc="T T T"
       O     0.0000000000     0.0000000000     0.0000000000     -3.486491426    -17.280960873     -0.000000000
       H     0.9578900000     0.0000000000     0.0000000000      1.840721396     -3.902350589     -0.000000000
       H     0.2337600000     0.7375200000     0.0000000000      1.645770030     21.183311462     -0.000000000
