       3
Lattice="15.0 0.0 0.0 0.0 15.0 0.0 0.0 0.0 15.0" Properties=species:S:1:pos:R:3:forces:R:3 energy=        2.6511392252 pbc="T T T"
       O     0.0000000000     0.0000000000     0.0000000000     12.169300391    -22.038041533     -0.000000000
       H     0.8842100000     0.0000000000     0.0000000000      4.110450121      1.264049167     -0.000000000
       H    -0.4870800000     0.5528900000     0.0000000000    -16.279750563     20.773992366     -0.000000000
