       3
Lattice="15.0 0.0 0.0 0.0 15.0 0.0 0.0 0.0 15.0" Properties=species:S:1:pos:R:3:forces:R:3 energy=        4.1600619486 pbc="T T T"
       O     0.0000000000     0.0000000000     0.0000000000      3.494166121      4.683670488     -0.000000000
       H     1.4000000000     0.0000000000     0.0000000000     -5.638540704      0.561332043     -0.000000000
       H    -0.3988300000     1.3419900000     0.0000000000      2.144374531     -5.245002531     -0.000000000
