       3
Lattice="15.0 0.0 0.0 0.0 15.0 0.0 0.0 0.0 15.0" Properties=species:S:1:pos:R:3:forces:R:3 energy=        4.7172627104 pbc="T T T"
       O     0.0000000000     0.0000000000     0.0000000000    -41.936790220      1.892399926     -0.000000000
       H     0.7000000000     0.0000000000     0.0000000000     36.623963241      2.180060534     -0.000000000
       H    -0.7793300000     0.8846200000     0.0000000000      5.312826928     -4.072460460     -0.000000000
