       3
Lattice="15.0 0.0 0.0 0.0 15.0 0.0 0.0 0.0 15.0" Properties=species:S:1:pos:R:3:forces:R:3 energy=        3.5016253612 pbc="T T T"
       O     0.0000000000     0.0000000000     0.0000000000    -36.143143531      1.131727332     -0.000000000
       H     0.7000000000     0.0000000000     0.0000000000     36.939565223     -1.083878103     -0.000000000
       H    -0.1720100000     0.9423200000     0.0000000000     -0.796421692     -0.047849281     -0.000000000
