       3
Lattice="15.0 0.0 0.0 0.0 15.0 0.0 0.0 0.0 15.0" Properties=species:S:1:pos:R:3:forces:R:3 energy=        4.9684488241 pbc="T T T"
       O     0.0000000000     0.0000000000     0.0000000000    -24.724200669      6.759653334     -0.000000000
       H     0.7368400000     0.0000000000     0.0000000000     27.815732719     -2.912692046     -0.000000000
       H     0.4946300000     1.3097100000     0.0000000000     -3.091532050     -3.846961288     -0.000000000
