       3
Lattice="15.0 0.0 0.0 0.0 15.0 0.0 0.0 0.0 15.0" Properties=species:S:1:pos:R:3:forces:R:3 energy=        1.0854978943 pbc="T T T"
       O     0.0000000000     0.0000000000     0.0000000000    -12.936526935     -3.354645451     -0.000000000
       H     0.8105300000     0.0000000000     0.0000000000     12.857173861      1.427397908     -0.000000000
       H    -0.5705400000     0.7230600000     0.0000000000      0.079353074      1.927247543     -0.000000000
