       3
Lattice="15.0 0.0 0.0 0.0 15.0 0.0 0.0 0.0 15.0" Properties=species:S:1:pos:R:3:forces:R:3 energy=        2.4445264339 pbc="T T T"
       O     0.0000000000     0.0000000000     0.0000000000     -7.211420593      2.259799942     -0.000000000
       H     0.9210500000     0.0000000000     0.0000000000      2.330908565      1.877462324     -0.000000000
       H    -0.8444100000     1.0701300000     0.0000000000      4.880512028     -4.137262317     -0.000000000
