       3
Lattice="15.0 0.0 0.0 0.0 15.0 0.0 0.0 0.0 15.0" Properties=species:S:1:pos:R:3:forces:R:3 energy=        2.8117708341 pbc="T T T"
       O     0.0000000000     0.0000000000     0.0000000000      8.355221265      5.447307205     -0.000000000
       H     1.2526300000     0.0000000000     0.0000000000     -4.995368197     -1.469551061     -0.000000000
       H     0.5053500000     1.1461700000     0.0000000000     -3.359853068     -3.977756144     -0.000000000
