       3
Lattice="15.0 0.0 0.0 0.0 15.0 0.0 0.0 0.0 15.0" Properties=species:S:1:pos:R:3:forces:R:3 energy=        2.3909956457 pbc="T T T"
       O     0.0000000000     0.0000000000     0.0000000000      6.980869920      2.832080108     -0.000000000
       H     1.4000000000     0.0000000000     0.0000000000     -5.191829162     -0.924900446     -0.000000000
       H     0.2579900000     0.9988000000     0.0000000000     -1.789040759     -1.907179662     -0.000000000
