       3
Lattice="15.0 0.0 0.0 0.0 15.0 0.0 0.0 0.0 15.0" Properties=species:S:1:pos:R:3:forces:R:3 energy=        3.1521472995 pbc="T T T"
       O     0.0000000000     0.0000000000     0.0000000000     15.602782124    -11.748458067     -0.000000000
       H     1.2894700000     0.0000000000     0.0000000000     -6.848979671      1.498915027     -0.000000000
       H    -0.6271300000     0.5134900000     0.0000000000     -8.753802453     10.249543092     -0.000000000
