       3
Lattice="15.0 0.0 0.0 0.0 15.0 0.0 0.0 0.0 15.0" Properties=species:S:1:pos:R:3:forces:R:3 energy=        2.6796197394 pbc="T T T"
       O     0.0000000000     0.0000000000     0.0000000000    -11.886541285    -17.314310050     -0.000000000
       H     0.8105300000     0.0000000000     0.0000000000     14.188181528     -2.891861576     -0.000000000
       H     0.0279300000     0.7731800000     0.0000000000     -2.301640244     20.206171626     -0.000000000
