       3
Lattice="15.0 0.0 0.0 0.0 15.0 0.0 0.0 0.0 15.0" Properties=species:S:1:pos:R:3:forces:R:3 energy=        3.8020517350 pbc="T T T"
       O     0.0000000000     0.0000000000     0.0000000000      2.300274113    -35.494055016     -0.000000000
       H     0.9947400000     0.0000000000     0.0000000000     -0.978645937     -1.878827169     -0.000000000
       H     0.0252700000     0.6995400000     0.0000000000     -1.321628227     37.372882134     -0.000000000
