       3
Lattice="15.0 0.0 0.0 0.0 15.0 0.0 0.0 0.0 15.0" Properties=species:S:1:pos:R:3:forces:R:3 energy=        1.2496019074 pbc="T T T"
       O     0.0000000000     0.0000000000     0.0000000000      5.011408649     -1.728238100     -0.000000000
       H     1.1052600000     0.0000000000     0.0000000000     -3.197995775     -2.724771622     -0.000000000
       H     0.3254100000     0.8616500000     0.0000000000     -1.813412874      4.453009721     -0.000000000
