       3
Lattice="15.0 0.0 0.0 0.0 15.0 0.0 0.0 0.0 15.0" Properties=species:S:1:pos:R:3:forces:R:3 energy=        1.9473954216 pbc="T T T"
       O     0.0000000000     0.0000000000     0.0000000000     14.367371202    -14.809913133     -0.000000000
       H     0.9578900000     0.0000000000     0.0000000000     -1.127050596      1.526427335     -0.000000000
       H    -0.5986200000     0.4901400000     0.0000000000    -13.240320606     13.283485798     -0.000000000
