       3
Lattice="15.0 0.0 0.0 0.0 15.0 0.0 0.0 0.0 15.0" Properties=species:S:1:pos:R:3:forces:R:3 energy=        0.8793548396 pbc="T T T"
       O     0.0000000000     0.0000000000     0.0000000000      0.429294521      6.133799375     -0.000000000
       H     0.9578900000     0.0000000000     0.0000000000      0.535569680     -0.956736014     -0.000000000
       H     0.0425600000     1.1781800000     0.0000000000     -0.964864201     -5.177063361     -0.000000000
