       3
Lattice="15.0 0.0 0.0 0.0 15.0 0.0 0.0 0.0 15.0" Properties=species:S:1:pos:R:3:forces:R:3 energy=        1.4379776196 pbc="T T T"
       O     0.0000000000     0.0000000000     0.0000000000      5.029004310      3.466847314     -0.000000000
       H     1.2526300000     0.0000000000     0.0000000000     -5.928229193      0.193826868     -0.000000000
       H    -0.1918600000     1.0510500000     0.0000000000      0.899224883     -3.660674183     -0.000000000
