       3
Lattice="15.0 0.0 0.0 0.0 15.0 0.0 0.0 0.0 15.0" Properties=species:S:1:pos:R:3:forces:R:3 energy=        3.0022934240 pbc="T T T"
       O     0.0000000000     0.0000000000     0.0000000000      5.667198387      5.802530420     -0.000000000
       H     1.2526300000     0.0000000000     0.0000000000     -5.688932087     -0.088611827     -0.000000000
       H    -0.0246100000     1.3629400000     0.0000000000      0.021733700     -5.713918593     -0.000000000
