       3
Lattice="15.0 0.0 0.0 0.0 15.0 0.0 0.0 0.0 15.0" Properties=species:S:1:pos:R:3:forces:R:3 energy=        0.5548791626 pbc="T T T"
       O     0.0000000000     0.0000000000     0.0000000000      5.501704215     -8.595919367     -0.000000000
       H     1.0315800000     0.0000000000     0.0000000000     -3.138432696      0.122126069     -0.000000000
       H    -0.2414000000     0.8122600000     0.0000000000     -2.363271518      8.473793297     -0.000000000
