       3
Lattice="15.0 0.0 0.0 0.0 15.0 0.0 0.0 0.0 15.0" Properties=species:S:1:pos:R:3:forces:R:3 energy=        2.6884309957 pbc="T T T"
       O     0.0000000000     0.0000000000     0.0000000000     -0.367649619    -25.150667129     -0.000000000
       H     0.8473700000     0.0000000000     0.0000000000      8.609339297     -0.512457714     -0.000000000
       H    -0.2099100000     0.7063100000     0.0000000000     -8.241689678     25.663124844     -0.000000000
