       3
Lattice="15.0 0.0 0.0 0.0 15.0 0.0 0.0 0.0 15.0" Properties=species:S:1:pos:R:3:forces:R:3 energy=        2.9839049679 pbc="T T T"
       O     0.0000000000     0.0000000000     0.0000000000     -7.240544315    -16.014119229     -0.000000000
       H     0.7736800000     0.0000000000     0.0000000000     18.506581491      1.283803271     -0.000000000
       H    -0.5114300000     0.5805300000     0.0000000000    -11.266037228     14.730315958     -0.000000000
