       3
Lattice="15.0 0.0 0.0 0.0 15.0 0.0 0.0 0.0 15.0" Properties=species:S:1:pos:R:3:forces:R:3 energy=        2.1734965422 pbc="T T T"
       O     0.0000000000     0.0000000000     0.0000000000     -0.019144083      0.934497864     -0.000000000
       H     1.1421100000     0.0000000000     0.0000000000     -5.509782368      1.780402414     -0.000000000
       H    -0.8704100000     0.7951800000     0.0000000000      5.528926451     -2.714900278     -0.000000000
