       3
Lattice="15.0 0.0 0.0 0.0 15.0 0.0 0.0 0.0 15.0" Properties=species:S:1:pos:R:3:forces:R:3 energy=        2.0150210302 pbc="T T T"
       O     0.0000000000     0.0000000000     0.0000000000      5.593677143      4.436760753     -0.000000000
       H     1.3263200000     0.0000000000     0.0000000000     -5.855361010     -0.046481710     -0.000000000
       H    -0.0797500000     1.1023800000     0.0000000000      0.261683918     -4.390279043     -0.000000000
