       3
Lattice="15.0 0.0 0.0 0.0 15.0 0.0 0.0 0.0 15.0" Properties=species:S:1:pos:R:3:forces:R:3 energy=        2.4150183008 pbc="T T T"
       O     0.0000000000     0.0000000000     0.0000000000      2.422444200      0.722175756     -0.000000000
       H     1.3263200000     0.0000000000     0.0000000000     -6.176523571      1.343347580     -0.000000000
       H    -0.6618300000     0.8387500000     0.0000000000      3.754079371     -2.065523336     -0.000000000
