       3
Lattice="15.0 0.0 0.0 0.0 15.0 0.0 0.0 0.0 15.0" Properties=species:S:1:pos:R:3:forces:R:3 energy=        4.1421239281 pbc="T T T"
       O     0.0000000000     0.0000000000     0.0000000000     19.252131878    -16.358323719     -0.000000000
       H     1.3631600000     0.0000000000     0.0000000000     -6.608450543      1.419602473     -0.000000000
       H    -0.5712000000     0.5218300000     0.0000000000    -12.643681335     14.938721245     -0.000000000
