       3
Lattice="15.0 0.0 0.0 0.0 15.0 0.0 0.0 0.0 15.0" Properties=species:S:1:pos:R:3:forces:R:3 energy=        2.1151398582 pbc="T T T"
       O     0.0000000000     0.0000000000     0.0000000000     -2.845975487      0.434466863     -0.000000000
       H     1.0315800000     0.0000000000     0.0000000000     -3.336773139      1.994468913     -0.000000000
       H    -0.9810100000     0.7181700000     0.0000000000      6.182748575     -2.428935776     -0.000000000
