       3
Lattice="15.0 0.0 0.0 0.0 15.0 0.0 0.0 0.0 15.0" Properties=species:S:1:pos:R:3:forces:R:3 energy=        2.6026769468 pbc="T T T"
       O     0.0000000000     0.0000000000     0.0000000000      5.972521763     -8.880240624     -0.000000000
       H     1.4000000000     0.0000000000     0.0000000000     -5.607334747     -0.424193038     -0.000000000
       H     0.0305900000     0.8468200000     0.0000000000     -0.365187016      9.304433663     -0.000000000
