       3
Lattice="15.0 0.0 0.0 0.0 15.0 0.0 0.0 0.0 15.0" Properties=species:S:1:pos:R:3:forces:R:3 energy=        2.8228802389 pbc="T T T"
       O     0.0000000000     0.0000000000     0.0000000000      2.416259460      3.944629316     -0.000000000
       H     1.2526300000     0.0000000000     0.0000000000     -5.896003331      1.002102123     -0.000000000
       H    -0.5624700000     1.1603300000     0.0000000000      3.479743871     -4.946731438     -0.000000000
