       3
Lattice="15.0 0.0 0.0 0.0 15.0 0.0 0.0 0.0 15.0" Properties=species:S:1:pos:R:3:forces:R:3 energy=        2.7918927969 pbc="T T T"
       O     0.0000000000     0.0000000000     0.0000000000      7.371836885      5.033913474     -0.000000000
       H     1.4000000000     0.0000000000     0.0000000000     -5.249931853     -0.815356024     -0.000000000
       H     0.2856300000     1.1058200000     0.0000000000     -2.121904981     -4.218557450     -0.000000000
