       3
Lattice="15.0 0.0 0.0 0.0 15.0 0.0 0.0 0.0 15.0" Properties=species:S:1:pos:R:3:forces:R:3 energy=        0.9990011650 pbc="T T T"
       O     0.0000000000     0.0000000000     0.0000000000      5.935311557     -0.212773285     -0.000000000
       H     1.2157900000     0.0000000000     0.0000000000     -5.764268736     -0.102386930     -0.000000000
       H    -0.1207400000     0.9502500000     0.0000000000     -0.171042821      0.315160215     -0.000000000
