       3
Lattice="15.0 0.0 0.0 0.0 15.0 0.0 0.0 0.0 15.0" Properties=species:S:1:pos:R:3:forces:R:3 energy=        2.9323814521 pbc="T T T"
       O     0.0000000000     0.0000000000     0.0000000000    -16.578794633      5.305290044     -0.000000000
       H     0.7736800000     0.0000000000     0.0000000000     20.730216382     -5.170672367     -0.000000000
       H     0.4310400000     0.9776100000     0.0000000000     -4.151421749     -0.134617626     -0.000000000
