       3
Lattice="15.0 0.0 0.0 0.0 15.0 0.0 0.0 0.0 15.0" Properties=species:S:1:pos:R:3:forces:R:3 energy=        1.0526079900 pbc="T T T"
       O     0.0000000000     0.0000000000     0.0000000000      1.691547052     -3.984554761     -0.000000000
       H     0.9947400000     0.0000000000     0.0000000000     -0.161079998     -3.236110134     -0.000000000
       H     0.2671600000     0.8428900000     0.0000000000     -1.530467054      7.220664947     -0.000000000
