       3
Lattice="15.0 0.0 0.0 0.0 15.0 0.0 0.0 0.0 15.0" Properties=species:S:1:pos:R:3:forces:R:3 energy=        4.5067449928 pbc="T T T"
       O     0.0000000000     0.0000000000     0.0000000000    -26.705408803    -16.384276498     -0.000000000
       H     0.7368400000     0.0000000000     0.0000000000     28.085198599     -4.605978862     -0.000000000
       H     0.1113600000     0.7656200000     0.0000000000     -1.379789745     20.990255359     -0.000000000
