       3
Lattice="15.0 0.0 0.0 0.0 15.0 0.0 0.0 0.0 15.0" Properties=species:S:1:pos:R:3:forces:R:3 energy=        3.8839100849 pbc="T T T"
       O     0.0000000000     0.0000000000     0.0000000000    -26.612067069      6.955599461     -0.000000000
       H     0.7368400000     0.0000000000     0.0000000000     27.536226574     -1.256162665     -0.000000000
       H     0.0465500000     1.2886300000     0.0000000000     -0.924159505     -5.699436796     -0.000000000
