       3
Lattice="15.0 0.0 0.0 0.0 15.0 0.0 0.0 0.0 15.0" Properties=species:S:1:pos:R:3:forces:R:3 energy=        1.5869347874 pbc="T T T"
       O     0.0000000000     0.0000000000     0.0000000000      5.534498651      5.991854770     -0.000000000
       H     1.1421100000     0.0000000000     0.0000000000     -4.850278977     -0.517514203     -0.000000000
       H     0.0438900000     1.2150000000     0.0000000000     -0.684219725     -5.474340619     -0.000000000
