       3
Lattice="15.0 0.0 0.0 0.0 15.0 0.0 0.0 0.0 15.0" Properties=species:S:1:pos:R:3:forces:R:3 energy=        1.2675867260 pbc="T T T"
       O     0.0000000000     0.0000000000     0.0000000000      6.069454249     -4.038280815     -0.000000000
       H     1.1789500000     0.0000000000     0.0000000000     -6.162546225      1.355430331     -0.000000000
       H    -0.5705400000     0.7230600000     0.0000000000      0.093091976      2.682850485     -0.000000000
