       3
Lattice="15.0 0.0 0.0 0.0 15.0 0.0 0.0 0.0 15.0" Properties=species:S:1:pos:R:3:forces:R:3 energy=        2.1393574666 pbc="T T T"
       O     0.0000000000     0.0000000000     0.0000000000      6.620349048     -0.118260105     -0.000000000
       H     1.3263200000     0.0000000000     0.0000000000     -4.924260243     -1.579026885     -0.000000000
       H     0.3384300000     0.8961100000     0.0000000000     -1.696088805      1.697286991     -0.000000000
