       3
Lattice="15.0 0.0 0.0 0.0 15.0 0.0 0.0 0.0 15.0" Properties=species:S:1:pos:R:3:forces:R:3 energy=        5.7125869152 pbc="T T T"
       O     0.0000000000     0.0000000000     0.0000000000    -41.272638684      3.050107908     -0.000000000
       H     0.7000000000     0.0000000000     0.0000000000     36.973030666      1.937929196     -0.000000000
       H    -0.7237600000     1.1551500000     0.0000000000      4.299608018     -4.988037104     -0.000000000
