       3
Lattice="15.0 0.0 0.0 0.0 15.0 0.0 0.0 0.0 15.0" Properties=species:S:1:pos:R:3:forces:R:3 energy=        0.9285392103 pbc="T T T"
       O     0.0000000000     0.0000000000     0.0000000000      6.103439158      4.344158315     -0.000000000
       H     1.1052600000     0.0000000000     0.0000000000     -3.929780262     -1.521571959     -0.000000000
       H     0.2108000000     1.0474200000     0.0000000000     -2.173658896     -2.822586356     -0.000000000
