       3
Lattice="15.0 0.0 0.0 0.0 15.0 0.0 0.0 0.0 15.0" Properties=species:S:1:pos:R:3:forces:R:3 energy=        2.1094213773 pbc="T T T"
       O     0.0000000000     0.0000000000     0.0000000000      3.415557227      0.565215388     -0.000000000
       H     1.3263200000     0.0000000000     0.0000000000     -6.197597628      1.132533682     -0.000000000
       H    -0.5477100000     0.8741700000     0.0000000000      2.782040400     -1.697749121     -0.000000000
