       3
Lattice="15.0 0.0 0.0 0.0 15.0 0.0 0.0 0.0 15.0" Properties=species:S:1:pos:R:3:forces:R:3 energy=        0.4718494714 pbc="T T T"
       O     0.0000000000     0.0000000000     0.0000000000     -9.607089774      1.367003951     -0.000000000
       H     0.8473700000     0.0000000000     0.0000000000      8.695920517      0.335188398     -0.000000000
       H    -0.3345900000     0.9367800000     0.0000000000      0.911169257     -1.702192350     -0.000000000
