       3
Lattice="15.0 0.0 0.0 0.0 15.0 0.0 0.0 0.0 15.0" Properties=species:S:1:pos:R:3:forces:R:3 energy=        3.6486726435 pbc="T T T"
       O     0.0000000000     0.0000000000     0.0000000000      8.410057882      5.178975594     -0.000000000
       H     1.2894700000     0.0000000000     0.0000000000     -5.078833444     -1.272370187     -0.000000000
       H     0.6166700000     1.2157000000     0.0000000000     -3.331224438     -3.906605407     -0.000000000
