       3
Lattice="15.0 0.0 0.0 0.0 15.0 0.0 0.0 0.0 15.0" Properties=species:S:1:pos:R:3:forces:R:3 energy=        3.7925058801 pbc="T T T"
       O     0.0000000000     0.0000000000     0.0000000000    -28.005763609      6.329891335     -0.000000000
       H     0.7368400000     0.0000000000     0.0000000000     27.398350742     -0.280041963     -0.000000000
       H    -0.1625400000     1.2791900000     0.0000000000      0.607412816     -6.049849424     -0.000000000
