       3
Lattice="15.0 0.0 0.0 0.0 15.0 0.0 0.0 0.0 15.0" Properties=species:S:1:pos:R:3:forces:R:3 energy=        1.6388753476 pbc="T T T"
       O     0.0000000000     0.0000000000     0.0000000000    -13.483688388      2.306155360     -0.000000000
       H     0.8473700000     0.0000000000     0.0000000000      8.571645622      1.814072979     -0.000000000
       H    -0.7303000000     0.9255200000     0.0000000000      4.912042766     -4.120228340     -0.000000000
