       3
Lattice="15.0 0.0 0.0 0.0 15.0 0.0 0.0 0.0 15.0" Properties=species:S:1:pos:R:3:forces:R:3 energy=        0.2219372588 pbc="T T T"
       O     0.0000000000     0.0000000000     0.0000000000     -2.063854998      3.562294114     -0.000000000
       H     0.9210500000     0.0000000000     0.0000000000      2.605071698     -0.825753776     -0.000000000
       H    -0.0744400000     1.0288900000     0.0000000000     -0.541216700     -2.736540338     -0.000000000
