       3
Lattice="15.0 0.0 0.0 0.0 15.0 0.0 0.0 0.0 15.0" Properties=species:S:1:pos:R:3:forces:R:3 energy=        4.1272921608 pbc="T T T"
       O     0.0000000000     0.0000000000     0.0000000000     17.868328587    -26.874382913     -0.000000000
       H     0.8473700000     0.0000000000     0.0000000000      7.524266351      1.392844116     -0.000000000
       H    -0.5168100000     0.4721400000     0.0000000000    -25.392594938     25.481538849     -0.000000000
