       3
Lattice="15.0 0.0 0.0 0.0 15.0 0.0 0.0 0.0 15.0" Properties=species:S:1:pos:R:3:forces:R:3 energy=        2.4937820495 pbc="T T T"
       O     0.0000000000     0.0000000000     0.0000000000    -26.564226633     -3.217312739     -0.000000000
       H     0.7368400000     0.0000000000     0.0000000000     26.485772623      1.447423520     -0.000000000
       H    -0.5705400000     0.7230600000     0.0000000000      0.078453959      1.769889219     -0.000000000
