       3
Lattice="15.0 0.0 0.0 0.0 15.0 0.0 0.0 0.0 15.0" Properties=species:S:1:pos:R:3:forces:R:3 energy=        2.7880203826 pbc="T T T"
       O     0.0000000000     0.0000000000     0.0000000000     12.993311575    -19.052850874     -0.000000000
       H     1.2526300000     0.0000000000     0.0000000000     -6.394251786      0.640805342     -0.000000000
       H    -0.2993000000     0.7134400000     0.0000000000     -6.599059789     18.412045480     -0.000000000
