       3
Lattice="15.0 0.0 0.0 0.0 15.0 0.0 0.0 0.0 15.0" Properties=species:S:1:pos:R:3:forces:R:3 energy=        4.9869635708 pbc="T T T"
       O     0.0000000000     0.0000000000     0.0000000000      5.828963173    -27.844150622     -0.000000000
       H     0.7736800000     0.0000000000     0.0000000000     18.277723737      1.279824590     -0.000000000
       H    -0.4904900000     0.4994200000     0.0000000000    -24.106686910     26.564326032     -0.000000000
