       3
Lattice="15.0 0.0 0.0 0.0 15.0 0.0 0.0 0.0 15.0" Properties=species:S:1:pos:R:3:forces:R:3 energy=        3.1684046713 pbc="T T T"
       O     0.0000000000     0.0000000000     0.0000000000     -2.677786438      0.481223373     -0.000000000
       H     1.0315800000     0.0000000000     0.0000000000     -2.931485174      2.105996067     -0.000000000
       H    -1.0832200000     0.8869300000     0.0000000000      5.609271611     -2.587219440     -0.000000000
