       3
Lattice="15.0 0.0 0.0 0.0 15.0 0.0 0.0 0.0 15.0" Properties=species:S:1:pos:R:3:forces:R:3 energy=        0.3070888068 pbc="T T T"
       O     0.0000000000     0.0000000000     0.0000000000      1.613862933      4.299772723     -0.000000000
       H     0.9947400000     0.0000000000     0.0000000000     -1.354851267     -0.566769055     -0.000000000
       H    -0.0770900000     1.0656300000     0.0000000000     -0.259011666     -3.733003668     -0.000000000
