       3
Lattice="15.0 0.0 0.0 0.0 15.0 0.0 0.0 0.0 15.0" Properties=species:S:1:pos:R:3:forces:R:3 energy=        2.2465284736 pbc="T T T"
       O     0.0000000000     0.0000000000     0.0000000000    -17.801860500     -6.739552852     -0.000000000
       H     0.7736800000     0.0000000000     0.0000000000     20.077562774     -2.870813950     -0.000000000
       H     0.0305900000     0.8468200000     0.0000000000     -2.275702274      9.610366801     -0.000000000
