       3
Lattice="15.0 0.0 0.0 0.0 15.0 0.0 0.0 0.0 15.0" Properties=species:S:1:pos:R:3:forces:R:3 energy=        2.4930249471 pbc="T T T"
       O     0.0000000000     0.0000000000     0.0000000000      4.005958897     -8.218453374     -0.000000000
       H     1.2894700000     0.0000000000     0.0000000000     -4.754924789     -1.885404722     -0.000000000
       H     0.2993800000     0.7927200000     0.0000000000      0.748965893     10.103858096     -0.000000000
