       3
Lattice="15.0 0.0 0.0 0.0 15.0 0.0 0.0 0.0 15.0" Properties=species:S:1:pos:R:3:forces:R:3 energy=        4.4781919956 pbc="T T T"
       O     0.0000000000     0.0000000000     0.0000000000    -29.067858853      5.317864853     -0.000000000
       H     0.7368400000     0.0000000000     0.0000000000     27.399523217      0.508437124     -0.000000000
       H    -0.3255900000     1.3616100000     0.0000000000      1.668335636     -5.826301977     -0.000000000
