       3
Lattice="15.0 0.0 0.0 0.0 15.0 0.0 0.0 0.0 15.0" Properties=species:S:1:pos:R:3:forces:R:3 energy=        1.7324685669 pbc="T T T"
       O     0.0000000000     0.0000000000     0.0000000000    -13.246242168      6.391565547     -0.000000000
       H     0.8105300000     0.0000000000     0.0000000000     13.878145576     -1.058985801     -0.000000000
       H    -0.0212800000     1.1787600000     0.0000000000     -0.631903408     -5.332579746     -0.000000000
