       3
Lattice="15.0 0.0 0.0 0.0 15.0 0.0 0.0 0.0 15.0" Properties=species:S:1:pos:R:3:forces:R:3 energy=        2.7254239579 pbc="T T T"
       O     0.0000000000     0.0000000000     0.0000000000     -9.468115001     -3.209092455     -0.000000000
       H     0.8473700000     0.0000000000     0.0000000000     11.362725151     -7.080811319     -0.000000000
       H     0.4421100000     0.7657500000     0.0000000000     -1.894610150     10.289903774     -0.000000000
