       3
Lattice="15.0 0.0 0.0 0.0 15.0 0.0 0.0 0.0 15.0" Properties=species:S:1:pos:R:3:forces:R:3 energy=        2.7778963838 pbc="T T T"
       O     0.0000000000     0.0000000000     0.0000000000      8.425098791     -6.588504378     -0.000000000
       H     1.3631600000     0.0000000000     0.0000000000     -6.382531201      1.408882768     -0.000000000
       H    -0.6195600000     0.6308500000     0.0000000000     -2.042567591      5.179621610     -0.000000000
