       3
Lattice="15.0 0.0 0.0 0.0 15.0 0.0 0.0 0.0 15.0" Properties=species:S:1:pos:R:3:forces:R:3 energy=        2.5724677858 pbc="T T T"
       O     0.0000000000     0.0000000000     0.0000000000    -13.602610861      6.516836334     -0.000000000
       H     0.8105300000     0.0000000000     0.0000000000     13.901898055     -0.662643789     -0.000000000
       H    -0.0239500000     1.3261000000     0.0000000000     -0.299287194     -5.854192546     -0.000000000
