       3
Lattice="15.0 0.0 0.0 0.0 15.0 0.0 0.0 0.0 15.0" Properties=species:S:1:pos:R:3:forces:R:3 energy=        1.4109361768 pbc="T T T"
       O     0.0000000000     0.0000000000     0.0000000000      3.296242352      2.161715910     -0.000000000
       H     1.2157900000     0.0000000000     0.0000000000     -6.010045128      0.952295923     -0.000000000
       H    -0.4660500000     0.9614100000     0.0000000000      2.713802776     -3.114011884     -0.000000000
