       3
Lattice="15.0 0.0 0.0 0.0 15.0 0.0 0.0 0.0 15.0" Properties=species:S:1:pos:R:3:forces:R:3 energy=        2.7775790065 pbc="T T T"
       O     0.0000000000     0.0000000000     0.0000000000      2.950270639      3.874425619     -0.000000000
       H     1.3631600000     0.0000000000     0.0000000000     -5.913921769      0.799737748     -0.000000000
       H    -0.4560800000     1.0871600000     0.0000000000      2.963651129     -4.674163367     -0.000000000
