       3
Lattice="15.0 0.0 0.0 0.0 15.0 0.0 0.0 0.0 15.0" Properties=species:S:1:pos:R:3:forces:R:3 energy=        2.9243041413 pbc="T T T"
       O     0.0000000000     0.0000000000     0.0000000000    -26.079324061      6.083849348     -0.000000000
       H     0.7368400000     0.0000000000     0.0000000000     27.532364056     -1.954537194     -0.000000000
       H     0.0399000000     1.1045400000     0.0000000000     -1.453039943     -4.129312154     -0.000000000
