       3
Lattice="15.0 0.0 0.0 0.0 15.0 0.0 0.0 0.0 15.0" Properties=species:S:1:pos:R:3:forces:R:3 energy=        2.7043924736 pbc="T T T"
       O     0.0000000000     0.0000000000     0.0000000000      3.195867723      4.620971640     -0.000000000
       H     1.2526300000     0.0000000000     0.0000000000     -5.875521862      0.741129321     -0.000000000
       H    -0.4337200000     1.2143400000     0.0000000000      2.679654139     -5.362100960     -0.000000000
