       3
Lattice="15.0 0.0 0.0 0.0 15.0 0.0 0.0 0.0 15.0" Properties=species:S:1:pos:R:3:forces:R:3 energy=        2.2742292482 pbc="T T T"
       O     0.0000000000     0.0000000000     0.0000000000      3.813053152      6.100698669     -0.000000000
       H     1.0315800000     0.0000000000     0.0000000000     -2.425354484     -0.835102671     -0.000000000
       H     0.2015100000     1.3854200000     0.0000000000     -1.387698668     -5.265595998     -0.000000000
