       3
Lattice="15.0 0.0 0.0 0.0 15.0 0.0 0.0 0.0 15.0" Properties=species:S:1:pos:R:3:forces:R:3 energy=        1.2387704560 pbc="T T T"
       O     0.0000000000     0.0000000000     0.0000000000      0.216693088      5.663581975     -0.000000000
       H     0.9947400000     0.0000000000     0.0000000000     -1.429370665      0.180686828     -0.000000000
       H    -0.2249400000     1.2322700000     0.0000000000      1.212677628     -5.844268803     -0.000000000
