       3
Lattice="15.0 0.0 0.0 0.0 15.0 0.0 0.0 0.0 15.0" Properties=species:S:1:pos:R:3:forces:R:3 energy=        2.4900712110 pbc="T T T"
       O     0.0000000000     0.0000000000     0.0000000000      3.061172038      4.637957486     -0.000000000
       H     1.2157900000     0.0000000000     0.0000000000     -5.742984105      0.754803996     -0.000000000
       H    -0.4337200000     1.2143400000     0.0000000000      2.681812067     -5.392761483     -0.000000000
