       3
Lattice="15.0 0.0 0.0 0.0 15.0 0.0 0.0 0.0 15.0" Properties=species:S:1:pos:R:3:forces:R:3 energy=        1.3561214575 pbc="T T T"
       O     0.0000000000     0.0000000000     0.0000000000      5.101983925      5.872841331     -0.000000000
       H     1.0315800000     0.0000000000     0.0000000000     -2.001416243     -2.061992953     -0.000000000
       H     0.3562100000     1.1238500000     0.0000000000     -3.100567682     -3.810848379     -0.000000000
