       3
Lattice="15.0 0.0 0.0 0.0 15.0 0.0 0.0 0.0 15.0" Properties=species:S:1:pos:R:3:forces:R:3 energy=        4.1033380158 pbc="T T T"
       O     0.0000000000     0.0000000000     0.0000000000      8.374991618      4.872157327     -0.000000000
       H     1.4000000000     0.0000000000     0.0000000000     -4.839210013     -1.126818580     -0.000000000
       H     0.6631600000     1.1486300000     0.0000000000     -3.535781605     -3.745338696     -0.000000000
