       3
Lattice="15.0 0.0 0.0 0.0 15.0 0.0 0.0 0.0 15.0" Properties=species:S:1:pos:R:3:forces:R:3 energy=        1.5566822269 pbc="T T T"
       O     0.0000000000     0.0000000000     0.0000000000      4.870641970     -2.555207134     -0.000000000
       H     1.2157900000     0.0000000000     0.0000000000     -6.355142357      1.452112700     -0.000000000
       H    -0.6332000000     0.7187500000     0.0000000000      1.484500387      1.103094485     -0.000000000
