       3
Lattice="15.0 0.0 0.0 0.0 15.0 0.0 0.0 0.0 15.0" Properties=species:S:1:pos:R:3:forces:R:3 energy=        1.7431098325 pbc="T T T"
       O     0.0000000000     0.0000000000     0.0000000000    -19.574688594      4.721296132     -0.000000000
       H     0.7736800000     0.0000000000     0.0000000000     19.685077058     -0.828774926     -0.000000000
       H    -0.1346700000     1.0599000000     0.0000000000     -0.110388464     -3.892521206     -0.000000000
