       3
Lattice="15.0 0.0 0.0 0.0 15.0 0.0 0.0 0.0 15.0" Properties=species:S:1:pos:R:3:forces:R:3 energy=        2.5764107238 pbc="T T T"
       O     0.0000000000     0.0000000000     0.0000000000      6.312317940     -8.966222777     -0.000000000
       H     1.4000000000     0.0000000000     0.0000000000     -5.701772131     -0.268557560     -0.000000000
       H    -0.0153000000     0.8472300000     0.0000000000     -0.610545809      9.234780337     -0.000000000
