       3
Lattice="15.0 0.0 0.0 0.0 15.0 0.0 0.0 0.0 15.0" Properties=species:S:1:pos:R:3:forces:R:3 energy=        3.4194477755 pbc="T T T"
       O     0.0000000000     0.0000000000     0.0000000000      3.338398694    -18.902076634     -0.000000000
       H     1.3263200000     0.0000000000     0.0000000000     -5.315352832     -1.180861394     -0.000000000
       H     0.1526500000     0.7584700000     0.0000000000      1.976954138     20.082937976     -0.000000000
