       3
Lattice="15.0 0.0 0.0 0.0 15.0 0.0 0.0 0.0 15.0" Properties=species:S:1:pos:R:3:forces:R:3 energy=        1.9262572986 pbc="T T T"
       O     0.0000000000     0.0000000000     0.0000000000      1.795110262      6.193503041     -0.000000000
       H     0.9947400000     0.0000000000     0.0000000000     -1.201817283     -0.532445223     -0.000000000
       H     0.0492100000     1.3622700000     0.0000000000     -0.593292979     -5.661057870     -0.000000000
