       3
Lattice="15.0 0.0 0.0 0.0 15.0 0.0 0.0 0.0 15.0" Properties=species:S:1:pos:R:3:forces:R:3 energy=        1.2796274541 pbc="T T T"
       O     0.0000000000     0.0000000000     0.0000000000     -2.594356260    -12.385482858     -0.000000000
       H     0.8473700000     0.0000000000     0.0000000000      8.252303145      0.685052917     -0.000000000
       H    -0.3925300000     0.7091400000     0.0000000000     -5.657946885     11.700429889     -0.000000000
