       3
Lattice="15.0 0.0 0.0 0.0 15.0 0.0 0.0 0.0 15.0" Properties=species:S:1:pos:R:3:forces:R:3 energy=        0.6894742997 pbc="T T T"
       O     0.0000000000     0.0000000000     0.0000000000      5.109788461     -3.593504081     -0.000000000
       H     1.1052600000     0.0000000000     0.0000000000     -5.187040583      1.140070412     -0.000000000
       H    -0.4890200000     0.7805100000     0.0000000000      0.077252122      2.453433670     -0.000000000
