       3
Lattice="15.0 0.0 0.0 0.0 15.0 0.0 0.0 0.0 15.0" Properties=species:S:1:pos:R:3:forces:R:3 energy=        3.4702555012 pbc="T T T"
       O     0.0000000000     0.0000000000     0.0000000000    -35.951222725     -1.680186216     -0.000000000
       H     0.7000000000     0.0000000000     0.0000000000     36.675090525     -0.106304984     -0.000000000
       H    -0.3098000000     0.8673800000     0.0000000000     -0.723867800      1.786491200     -0.000000000
