       3
Lattice="15.0 0.0 0.0 0.0 15.0 0.0 0.0 0.0 15.0" Properties=species:S:1:pos:R:3:forces:R:3 energy=        2.3736420632 pbc="T T T"
       O     0.0000000000     0.0000000000     0.0000000000      8.106285089      4.894599314     -0.000000000
       H     1.2894700000     0.0000000000     0.0000000000     -5.096806441     -1.400128312     -0.000000000
       H     0.4035100000     1.0684500000     0.0000000000     -3.009478648     -3.494471003     -0.000000000
