       3
Lattice="15.0 0.0 0.0 0.0 15.0 0.0 0.0 0.0 15.0" Properties=species:S:1:pos:R:3:forces:R:3 energy=        5.3841835549 pbc="T T T"
       O     0.0000000000     0.0000000000     0.0000000000     -6.483364618    -24.112285798     -0.000000000
       H     1.4000000000     0.0000000000     0.0000000000     -3.995095209     -2.129678304     -0.000000000
       H     0.3684200000     0.6381200000     0.0000000000     10.478459827     26.241964102     -0.000000000
