       3
Lattice="15.0 0.0 0.0 0.0 15.0 0.0 0.0 0.0 15.0" Properties=species:S:1:pos:R:3:forces:R:3 energy=        1.9661234295 pbc="T T T"
       O     0.0000000000     0.0000000000     0.0000000000    -17.888490571     -3.229360420     -0.000000000
       H     0.7736800000     0.0000000000     0.0000000000     20.047333169     -2.710714108     -0.000000000
       H     0.0319200000     0.8836300000     0.0000000000     -2.158842598      5.940074477     -0.000000000
