       3
Lattice="15.0 0.0 0.0 0.0 15.0 0.0 0.0 0.0 15.0" Properties=species:S:1:pos:R:3:forces:R:3 energy=        3.0022450884 pbc="T T T"
       O     0.0000000000     0.0000000000     0.0000000000    -19.660511287      0.512335793     -0.000000000
       H     0.8105300000     0.0000000000     0.0000000000     13.161751770      2.355948087     -0.000000000
       H    -1.0107300000     0.7399300000     0.0000000000      6.498759517     -2.868283829     -0.000000000
