       3
Lattice="15.0 0.0 0.0 0.0 15.0 0.0 0.0 0.0 15.0" Properties=species:S:1:pos:R:3:forces:R:3 energy=        2.2020875727 pbc="T T T"
       O     0.0000000000     0.0000000000     0.0000000000      7.643048853      5.162519909     -0.000000000
       H     1.2894700000     0.0000000000     0.0000000000     -5.350704437     -1.056293547     -0.000000000
       H     0.2856300000     1.1058200000     0.0000000000     -2.292344416     -4.106226362     -0.000000000
