       3
Lattice="15.0 0.0 0.0 0.0 15.0 0.0 0.0 0.0 15.0" Properties=species:S:1:pos:R:3:forces:R:3 energy=        3.1127223250 pbc="T T T"
       O     0.0000000000     0.0000000000     0.0000000000      2.376224588     -8.112790960     -0.000000000
       H     1.3263200000     0.0000000000     0.0000000000     -4.107762340     -2.400359750     -0.000000000
       H     0.4236900000     0.7338400000     0.0000000000      1.731537752     10.513150710     -0.000000000
