       3
Lattice="15.0 0.0 0.0 0.0 15.0 0.0 0.0 0.0 15.0" Properties=species:S:1:pos:R:3:forces:R:3 energy=        1.3054662406 pbc="T T T"
       O     0.0000000000     0.0000000000     0.0000000000     -7.174676220      0.023902066     -0.000000000
       H     0.9210500000     0.0000000000     0.0000000000      1.667747778      1.971485605     -0.000000000
       H    -0.8918200000     0.6528800000     0.0000000000      5.506928442     -1.995387671     -0.000000000
