       3
Lattice="15.0 0.0 0.0 0.0 15.0 0.0 0.0 0.0 15.0" Properties=species:S:1:pos:R:3:forces:R:3 energy=        2.1946932350 pbc="T T T"
       O     0.0000000000     0.0000000000     0.0000000000      1.388608427      5.340293367     -0.000000000
       H     1.0315800000     0.0000000000     0.0000000000     -2.676492915      0.336074041     -0.000000000
       H    -0.2514000000     1.3772400000     0.0000000000      1.287884488     -5.676367408     -0.000000000
