       3
Lattice="15.0 0.0 0.0 0.0 15.0 0.0 0.0 0.0 15.0" Properties=species:S:1:pos:R:3:forces:R:3 energy=        1.4690634416 pbc="T T T"
       O     0.0000000000     0.0000000000     0.0000000000      7.418255809    -13.186341093     -0.000000000
       H     1.1421100000     0.0000000000     0.0000000000     -5.164357169     -0.373745296     -0.000000000
       H    -0.1021700000     0.8040700000     0.0000000000     -2.253898641     13.560086441     -0.000000000
