       3
Lattice="15.0 0.0 0.0 0.0 15.0 0.0 0.0 0.0 15.0" Properties=species:S:1:pos:R:3:forces:R:3 energy=        1.2423449137 pbc="T T T"
       O     0.0000000000     0.0000000000     0.0000000000    -11.971561278     -3.574168245     -0.000000000
       H     0.8105300000     0.0000000000     0.0000000000     13.955174166     -2.052788245     -0.000000000
       H    -0.0159600000     0.8840700000     0.0000000000     -1.983612887      5.626956490     -0.000000000
