       3
Lattice="15.0 0.0 0.0 0.0 15.0 0.0 0.0 0.0 15.0" Properties=species:S:1:pos:R:3:forces:R:3 energy=        5.6459693333 pbc="T T T"
       O     0.0000000000     0.0000000000     0.0000000000     12.469812973    -36.746277258     -0.000000000
       H     1.4000000000     0.0000000000     0.0000000000     -6.014025815      0.113667753     -0.000000000
       H    -0.1257000000     0.6886200000     0.0000000000     -6.455787158     36.632609505     -0.000000000
