       3
Lattice="15.0 0.0 0.0 0.0 15.0 0.0 0.0 0.0 15.0" Properties=species:S:1:pos:R:3:forces:R:3 energy=        2.6769057546 pbc="T T T"
       O     0.0000000000     0.0000000000     0.0000000000     -1.213912478    -25.466046762     -0.000000000
       H     0.9210500000     0.0000000000     0.0000000000      3.008987104     -2.235136675     -0.000000000
       H     0.0266000000     0.7363600000     0.0000000000     -1.795074575     27.701183437     -0.000000000
