       3
Lattice="15.0 0.0 0.0 0.0 15.0 0.0 0.0 0.0 15.0" Properties=species:S:1:pos:R:3:forces:R:3 energy=        0.8607841027 pbc="T T T"
       O     0.0000000000     0.0000000000     0.0000000000     -2.614712619      5.942989286     -0.000000000
       H     0.9210500000     0.0000000000     0.0000000000      2.616396693     -0.504463071     -0.000000000
       H    -0.0850700000     1.1758800000     0.0000000000     -0.001684125     -5.438526215     -0.000000000
