       3
Lattice="15.0 0.0 0.0 0.0 15.0 0.0 0.0 0.0 15.0" Properties=species:S:1:pos:R:3:forces:R:3 energy=        0.7537503499 pbc="T T T"
       O     0.0000000000     0.0000000000     0.0000000000      4.615622097     -5.926617471     -0.000000000
       H     0.9947400000     0.0000000000     0.0000000000     -2.555402435      1.602550074     -0.000000000
       H    -0.6528100000     0.5963800000     0.0000000000     -2.060219662      4.324067397     -0.000000000
