       3
Lattice="15.0 0.0 0.0 0.0 15.0 0.0 0.0 0.0 15.0" Properties=species:S:1:pos:R:3:forces:R:3 energy=        1.5518023900 pbc="T T T"
       O     0.0000000000     0.0000000000     0.0000000000     -3.638253999      0.217317044     -0.000000000
       H     0.9947400000     0.0000000000     0.0000000000     -2.188830777      1.946966577     -0.000000000
       H    -0.9215600000     0.6746500000     0.0000000000      5.827084775     -2.164283621     -0.000000000
