       3
Lattice="15.0 0.0 0.0 0.0 15.0 0.0 0.0 0.0 15.0" Properties=species:S:1:pos:R:3:forces:R:3 energy=        3.0659298352 pbc="T T T"
       O     0.0000000000     0.0000000000     0.0000000000      6.830807465      5.954209020     -0.000000000
       H     1.2526300000     0.0000000000     0.0000000000     -5.543220403     -0.538259518     -0.000000000
       H     0.1962100000     1.3489600000     0.0000000000     -1.287587114     -5.415949502     -0.000000000
