       3
Lattice="15.0 0.0 0.0 0.0 15.0 0.0 0.0 0.0 15.0" Properties=species:S:1:pos:R:3:forces:R:3 energy=        2.0977078607 pbc="T T T"
       O     0.0000000000     0.0000000000     0.0000000000      6.860727252     -5.685476728     -0.000000000
       H     1.3631600000     0.0000000000     0.0000000000     -6.064623863      0.308857975     -0.000000000
       H    -0.2056400000     0.8599700000     0.0000000000     -0.796103389      5.376618753     -0.000000000
