       3
Lattice="15.0 0.0 0.0 0.0 15.0 0.0 0.0 0.0 15.0" Properties=species:S:1:pos:R:3:forces:R:3 energy=        1.4924061985 pbc="T T T"
       O     0.0000000000     0.0000000000     0.0000000000      0.642225106     -0.339680015     -0.000000000
       H     1.1052600000     0.0000000000     0.0000000000     -5.269887736      1.766701461     -0.000000000
       H    -0.8266600000     0.6768700000     0.0000000000      4.627662630     -1.427021446     -0.000000000
