       3
Lattice="15.0 0.0 0.0 0.0 15.0 0.0 0.0 0.0 15.0" Properties=species:S:1:pos:R:3:forces:R:3 energy=        0.6060166958 pbc="T T T"
       O     0.0000000000     0.0000000000     0.0000000000      1.250967954     -7.788990188     -0.000000000
       H     0.9578900000     0.0000000000     0.0000000000      0.532928333     -1.430551984     -0.000000000
       H    -0.0153000000     0.8472300000     0.0000000000     -1.783896236      9.219542173     -0.000000000
