       3
Lattice="15.0 0.0 0.0 0.0 15.0 0.0 0.0 0.0 15.0" Properties=species:S:1:pos:R:3:forces:R:3 energy=        4.1898417737 pbc="T T T"
       O     0.0000000000     0.0000000000     0.0000000000    -16.581101994      6.537598979     -0.000000000
       H     0.7736800000     0.0000000000     0.0000000000     20.368036171     -3.644574802     -0.000000000
       H     0.6166700000     1.2157000000     0.0000000000     -3.786934177     -2.893024229     -0.000000000
