       3
Lattice="15.0 0.0 0.0 0.0 15.0 0.0 0.0 0.0 15.0" Properties=species:S:1:pos:R:3:forces:R:3 energy=        1.6581867159 pbc="T T T"
       O     0.0000000000     0.0000000000     0.0000000000     -0.709629178      6.086503293     -0.000000000
       H     0.9578900000     0.0000000000     0.0000000000      0.422941887     -0.192894020     -0.000000000
       H    -0.0957000000     1.3228600000     0.0000000000      0.286687291     -5.893609273     -0.000000000
