       3
Lattice="15.0 0.0 0.0 0.0 15.0 0.0 0.0 0.0 15.0" Properties=species:S:1:pos:R:3:forces:R:3 energy=        0.5061374232 pbc="T T T"
       O     0.0000000000     0.0000000000     0.0000000000      3.501470783     -3.787817917     -0.000000000
       H     1.0315800000     0.0000000000     0.0000000000     -3.599631229      1.393202476     -0.000000000
       H    -0.5705400000     0.7230600000     0.0000000000      0.098160394      2.394615492     -0.000000000
