       3
Lattice="15.0 0.0 0.0 0.0 15.0 0.0 0.0 0.0 15.0" Properties=species:S:1:pos:R:3:forces:R:3 energy=        2.3206567137 pbc="T T T"
       O     0.0000000000     0.0000000000     0.0000000000      2.141263752      6.144558213     -0.000000000
       H     0.9578900000     0.0000000000     0.0000000000      0.949600686     -2.062534942     -0.000000000
       H     0.4816100000     1.2752500000     0.0000000000     -3.090864386     -4.082023271     -0.000000000
