       3
Lattice="15.0 0.0 0.0 0.0 15.0 0.0 0.0 0.0 15.0" Properties=species:S:1:pos:R:3:forces:R:3 energy=        1.8715898282 pbc="T T T"
       O     0.0000000000     0.0000000000     0.0000000000    -15.197189894      5.592260465     -0.000000000
       H     0.8105300000     0.0000000000     0.0000000000     13.658568840      0.217813215     -0.000000000
       H    -0.2827500000     1.1824500000     0.0000000000      1.538621055     -5.810073680     -0.000000000
