       3
Lattice="15.0 0.0 0.0 0.0 15.0 0.0 0.0 0.0 15.0" Properties=species:S:1:pos:R:3:forces:R:3 energy=        2.7503244687 pbc="T T T"
       O     0.0000000000     0.0000000000     0.0000000000      8.119180257      5.377648583     -0.000000000
       H     1.1789500000     0.0000000000     0.0000000000     -4.451156675     -1.815268132     -0.000000000
       H     0.5833300000     1.1499800000     0.0000000000     -3.668023582     -3.562380451     -0.000000000
