       3
Lattice="15.0 0.0 0.0 0.0 15.0 0.0 0.0 0.0 15.0" Properties=species:S:1:pos:R:3:forces:R:3 energy=        1.9864199343 pbc="T T T"
       O     0.0000000000     0.0000000000     0.0000000000      3.720963187      5.514081100     -0.000000000
       H     1.1421100000     0.0000000000     0.0000000000     -5.040720678      0.289256544     -0.000000000
       H    -0.2315500000     1.2685100000     0.0000000000      1.319757492     -5.803337592     -0.000000000
