       3
Lattice="15.0 0.0 0.0 0.0 15.0 0.0 0.0 0.0 15.0" Properties=species:S:1:pos:R:3:forces:R:3 energy=        1.8654714923 pbc="T T T"
       O     0.0000000000     0.0000000000     0.0000000000      8.173536386     -6.392729178     -0.000000000
       H     1.2526300000     0.0000000000     0.0000000000     -6.517936664      1.306527977     -0.000000000
       H    -0.5477200000     0.6941400000     0.0000000000     -1.655599722      5.086201201     -0.000000000
