       3
Lattice="15.0 0.0 0.0 0.0 15.0 0.0 0.0 0.0 15.0" Properties=species:S:1:pos:R:3:forces:R:3 energy=        0.9629497276 pbc="T T T"
       O     0.0000000000     0.0000000000     0.0000000000     -8.517117074     -0.661288097     -0.000000000
       H     0.8842100000     0.0000000000     0.0000000000      4.448626811      1.894169617     -0.000000000
       H    -0.7981600000     0.6535300000     0.0000000000      4.068490263     -1.232881520     -0.000000000
