       3
Lattice="15.0 0.0 0.0 0.0 15.0 0.0 0.0 0.0 15.0" Properties=species:S:1:pos:R:3:forces:R:3 energy=        1.4257394538 pbc="T T T"
       O     0.0000000000     0.0000000000     0.0000000000      6.666265938     -5.151896106     -0.000000000
       H     1.2526300000     0.0000000000     0.0000000000     -5.850467735     -0.296840428     -0.000000000
       H    -0.0638000000     0.8819100000     0.0000000000     -0.815798203      5.448736482     -0.000000000
