       3
Lattice="15.0 0.0 0.0 0.0 15.0 0.0 0.0 0.0 15.0" Properties=species:S:1:pos:R:3:forces:R:3 energy=        2.4511515384 pbc="T T T"
       O     0.0000000000     0.0000000000     0.0000000000    -17.226479377      3.438846445     -0.000000000
       H     0.7736800000     0.0000000000     0.0000000000     20.607647775     -4.592073352     -0.000000000
       H     0.3005500000     0.9482500000     0.0000000000     -3.381168449      1.153226856     -0.000000000
