       3
Lattice="15.0 0.0 0.0 0.0 15.0 0.0 0.0 0.0 15.0" Properties=species:S:1:pos:R:3:forces:R:3 energy=        3.4030338157 pbc="T T T"
       O     0.0000000000     0.0000000000     0.0000000000     15.526563894    -11.822372536     -0.000000000
       H     1.3263200000     0.0000000000     0.0000000000     -6.756155141      1.490003476     -0.000000000
       H    -0.6271300000     0.5134900000     0.0000000000     -8.770408753     10.332369059     -0.000000000
