       3
Lattice="15.0 0.0 0.0 0.0 15.0 0.0 0.0 0.0 15.0" Properties=species:S:1:pos:R:3:forces:R:3 energy=        3.2926088685 pbc="T T T"
       O     0.0000000000     0.0000000000     0.0000000000      8.090077207      5.525463533     -0.000000000
       H     1.3631600000     0.0000000000     0.0000000000     -5.192812455     -1.031729884     -0.000000000
       H     0.4425600000     1.1718500000     0.0000000000     -2.897264752     -4.493733649     -0.000000000
