       3
Lattice="15.0 0.0 0.0 0.0 15.0 0.0 0.0 0.0 15.0" Properties=species:S:1:pos:R:3:forces:R:3 energy=        6.2536441114 pbc="T T T"
       O     0.0000000000     0.0000000000     0.0000000000    -34.620743574    -23.863182345     -0.000000000
       H     0.7000000000     0.0000000000     0.0000000000     37.449729049     -4.036103964     -0.000000000
       H     0.0266000000     0.7363600000     0.0000000000     -2.828985475     27.899286309     -0.000000000
