       3
Lattice="15.0 0.0 0.0 0.0 15.0 0.0 0.0 0.0 15.0" Properties=species:S:1:pos:R:3:forces:R:3 energy=        0.9260533876 pbc="T T T"
       O     0.0000000000     0.0000000000     0.0000000000      5.287206644     -4.048119403     -0.000000000
       H     1.1052600000     0.0000000000     0.0000000000     -5.366799757      1.469978636     -0.000000000
       H    -0.6088500000     0.6911100000     0.0000000000      0.079593112      2.578140768     -0.000000000
