       3
Lattice="15.0 0.0 0.0 0.0 15.0 0.0 0.0 0.0 15.0" Properties=species:S:1:pos:R:3:forces:R:3 energy=        4.0565954098 pbc="T T T"
       O     0.0000000000     0.0000000000     0.0000000000      5.872798960      5.664458618     -0.000000000
       H     1.4000000000     0.0000000000     0.0000000000     -5.556559446     -0.115724688     -0.000000000
       H     0.0505400000     1.3990900000     0.0000000000     -0.316239513     -5.548733930     -0.000000000
