       3
Lattice="15.0 0.0 0.0 0.0 15.0 0.0 0.0 0.0 15.0" Properties=species:S:1:pos:R:3:forces:R:3 energy=        1.4329969808 pbc="T T T"
       O     0.0000000000     0.0000000000     0.0000000000      3.191748917      3.978787003     -0.000000000
       H     1.1789500000     0.0000000000     0.0000000000     -5.631604687      0.700987439     -0.000000000
       H    -0.3841600000     1.0755600000     0.0000000000      2.439855770     -4.679774391     -0.000000000
