       3
Lattice="15.0 0.0 0.0 0.0 15.0 0.0 0.0 0.0 15.0" Properties=species:S:1:pos:R:3:forces:R:3 energy=        1.3561143907 pbc="T T T"
       O     0.0000000000     0.0000000000     0.0000000000      7.140774563      3.088823957     -0.000000000
       H     1.1789500000     0.0000000000     0.0000000000     -4.570401256     -1.804401565     -0.000000000
       H     0.3116800000     0.9833700000     0.0000000000     -2.570373307     -1.284422444     -0.000000000
