       3
Lattice="15.0 0.0 0.0 0.0 15.0 0.0 0.0 0.0 15.0" Properties=species:S:1:pos:R:3:forces:R:3 energy=        2.3128586406 pbc="T T T"
       O     0.0000000000     0.0000000000     0.0000000000      7.370578176      5.591551354     -0.000000000
       H     1.2894700000     0.0000000000     0.0000000000     -5.476757406     -0.840386137     -0.000000000
       H     0.2326100000     1.1557700000     0.0000000000     -1.893820770     -4.751165218     -0.000000000
