       3
Lattice="15.0 0.0 0.0 0.0 15.0 0.0 0.0 0.0 15.0" Properties=species:S:1:pos:R:3:forces:R:3 energy=        4.9632328857 pbc="T T T"
       O     0.0000000000     0.0000000000     0.0000000000     29.317997690    -30.292619746     -0.000000000
       H     1.2157900000     0.0000000000     0.0000000000     -6.760960329      1.292475297     -0.000000000
       H    -0.4627300000     0.5252400000     0.0000000000    -22.557037412     29.000144448     -0.000000000
