       3
Lattice="15.0 0.0 0.0 0.0 15.0 0.0 0.0 0.0 15.0" Properties=species:S:1:pos:R:3:forces:R:3 energy=        2.3015529193 pbc="T T T"
       O     0.0000000000     0.0000000000     0.0000000000      7.307439205      3.840179023     -0.000000000
       H     1.3631600000     0.0000000000     0.0000000000     -5.286719574     -0.971092033     -0.000000000
       H     0.2672000000     1.0344700000     0.0000000000     -2.020719631     -2.869086990     -0.000000000
