       3
Lattice="15.0 0.0 0.0 0.0 15.0 0.0 0.0 0.0 15.0" Properties=species:S:1:pos:R:3:forces:R:3 energy=        2.2113753031 pbc="T T T"
       O     0.0000000000     0.0000000000     0.0000000000      7.911450090      3.523090120     -0.000000000
       H     1.2894700000     0.0000000000     0.0000000000     -4.847314648     -1.720509154     -0.000000000
       H     0.4310400000     0.9776100000     0.0000000000     -3.064135442     -1.802580966     -0.000000000
