       3
Lattice="15.0 0.0 0.0 0.0 15.0 0.0 0.0 0.0 15.0" Properties=species:S:1:pos:R:3:forces:R:3 energy=        1.1678962814 pbc="T T T"
       O     0.0000000000     0.0000000000     0.0000000000     -6.945345794      5.163357832     -0.000000000
       H     0.8473700000     0.0000000000     0.0000000000      9.642171414     -2.727544918     -0.000000000
       H     0.2108000000     1.0474200000     0.0000000000     -2.696825620     -2.435812966     -0.000000000
