       3
Lattice="15.0 0.0 0.0 0.0 15.0 0.0 0.0 0.0 15.0" Properties=species:S:1:pos:R:3:forces:R:3 energy=        4.4385189377 pbc="T T T"
       O     0.0000000000     0.0000000000     0.0000000000    -40.566409174      3.647218822     -0.000000000
       H     0.7000000000     0.0000000000     0.0000000000     36.780023620      1.434518581     -0.000000000
       H    -0.5709500000     1.0314800000     0.0000000000      3.786385606     -5.081737455     -0.000000000
