       3
Lattice="15.0 0.0 0.0 0.0 15.0 0.0 0.0 0.0 15.0" Properties=species:S:1:pos:R:3:forces:R:3 energy=        5.1419995500 pbc="T T T"
       O     0.0000000000     0.0000000000     0.0000000000    -42.657098429      1.159108000     -0.000000000
       H     0.7000000000     0.0000000000     0.0000000000     36.605975589      2.454713822     -0.000000000
       H    -0.8976100000     0.8200300000     0.0000000000      6.051122840     -3.613821822     -0.000000000
