       3
Lattice="15.0 0.0 0.0 0.0 15.0 0.0 0.0 0.0 15.0" Properties=species:S:1:pos:R:3:forces:R:3 energy=        1.6628810691 pbc="T T T"
       O     0.0000000000     0.0000000000     0.0000000000      3.767957627      6.130408911     -0.000000000
       H     1.0684200000     0.0000000000     0.0000000000     -3.601399994     -0.327427005     -0.000000000
       H    -0.0232800000     1.2892600000     0.0000000000     -0.166557633     -5.802981957     -0.000000000
