       3
Lattice="15.0 0.0 0.0 0.0 15.0 0.0 0.0 0.0 15.0" Properties=species:S:1:pos:R:3:forces:R:3 energy=        4.3746745118 pbc="T T T"
       O     0.0000000000     0.0000000000     0.0000000000    -31.852578036      2.756840081     -0.000000000
       H     0.7368400000     0.0000000000     0.0000000000     27.122340322      2.013579726     -0.000000000
       H    -0.7640100000     1.0841600000     0.0000000000      4.730237714     -4.770419807     -0.000000000
