       3
Lattice="15.0 0.0 0.0 0.0 15.0 0.0 0.0 0.0 15.0" Properties=species:S:1:pos:R:3:forces:R:3 energy=        3.0123743200 pbc="T T T"
       O     0.0000000000     0.0000000000     0.0000000000      4.780944777      5.339117344     -0.000000000
       H     1.4000000000     0.0000000000     0.0000000000     -5.694901985      0.182903532     -0.000000000
       H    -0.1532500000     1.2060900000     0.0000000000      0.913957208     -5.522020876     -0.000000000
