       3
Lattice="15.0 0.0 0.0 0.0 15.0 0.0 0.0 0.0 15.0" Properties=species:S:1:pos:R:3:forces:R:3 energy=        1.0490378344 pbc="T T T"
       O     0.0000000000     0.0000000000     0.0000000000     -0.481475341      2.557880517     -0.000000000
       H     0.9210500000     0.0000000000     0.0000000000      3.765027442     -3.786295052     -0.000000000
       H     0.3514500000     0.9305900000     0.0000000000     -3.283552101      1.228414586     -0.000000000
