       3
Lattice="15.0 0.0 0.0 0.0 15.0 0.0 0.0 0.0 15.0" Properties=species:S:1:pos:R:3:forces:R:3 energy=        2.2426365760 pbc="T T T"
       O     0.0000000000     0.0000000000     0.0000000000    -14.985293664    -12.022527252     -0.000000000
       H     0.7736800000     0.0000000000     0.0000000000     19.305453188     -0.577856634     -0.000000000
       H    -0.2309000000     0.7769400000     0.0000000000     -4.320159575     12.600383886     -0.000000000
