       3
Lattice="15.0 0.0 0.0 0.0 15.0 0.0 0.0 0.0 15.0" Properties=species:S:1:pos:R:3:forces:R:3 energy=        2.6721051845 pbc="T T T"
       O     0.0000000000     0.0000000000     0.0000000000    -30.018172660      0.617653833     -0.000000000
       H     0.7368400000     0.0000000000     0.0000000000     26.662309997      1.688404442     -0.000000000
       H    -0.6390100000     0.8098300000     0.0000000000      3.355862612     -2.306058275     -0.000000000
