       3
Lattice="15.0 0.0 0.0 0.0 15.0 0.0 0.0 0.0 15.0" Properties=species:S:1:pos:R:3:forces:R:3 energy=        1.8314997313 pbc="T T T"
       O     0.0000000000     0.0000000000     0.0000000000      0.399465648      4.720631913     -0.000000000
       H     0.9210500000     0.0000000000     0.0000000000      4.079232852     -4.555012837     -0.000000000
       H     0.5526300000     0.9571800000     0.0000000000     -4.478698499     -0.165619128     -0.000000000
