       3
Lattice="15.0 0.0 0.0 0.0 15.0 0.0 0.0 0.0 15.0" Properties=species:S:1:pos:R:3:forces:R:3 energy=        4.5634742345 pbc="T T T"
       O     0.0000000000     0.0000000000     0.0000000000     30.301895982    -28.976390478     -0.000000000
       H     1.1421100000     0.0000000000     0.0000000000     -6.299375463      1.363034989     -0.000000000
       H    -0.4904900000     0.4994200000     0.0000000000    -24.002520570     27.613355489     -0.000000000
