       3
Lattice="15.0 0.0 0.0 0.0 15.0 0.0 0.0 0.0 15.0" Properties=species:S:1:pos:R:3:forces:R:3 energy=        2.1508019334 pbc="T T T"
       O     0.0000000000     0.0000000000     0.0000000000      1.103193524    -18.011853444     -0.000000000
       H     1.0315800000     0.0000000000     0.0000000000     -1.785776999     -2.539212859     -0.000000000
       H     0.1526500000     0.7584700000     0.0000000000      0.682583474     20.551066303     -0.000000000
