       3
Lattice="15.0 0.0 0.0 0.0 15.0 0.0 0.0 0.0 15.0" Properties=species:S:1:pos:R:3:forces:R:3 energy=        1.7699545777 pbc="T T T"
       O     0.0000000000     0.0000000000     0.0000000000      1.394286968      1.034591266     -0.000000000
       H     1.1789500000     0.0000000000     0.0000000000     -5.905035929      1.563182506     -0.000000000
       H    -0.7306200000     0.8293300000     0.0000000000      4.510749012     -2.597773772     -0.000000000
