       3
Lattice="15.0 0.0 0.0 0.0 15.0 0.0 0.0 0.0 15.0" Properties=species:S:1:pos:R:3:forces:R:3 energy=        3.5158170514 pbc="T T T"
       O     0.0000000000     0.0000000000     0.0000000000      7.194750837      5.857809113     -0.000000000
       H     1.3263200000     0.0000000000     0.0000000000     -5.555214965     -0.582104304     -0.000000000
       H     0.2689600000     1.3363600000     0.0000000000     -1.639535873     -5.275704809     -0.000000000
