       3
Lattice="15.0 0.0 0.0 0.0 15.0 0.0 0.0 0.0 15.0" Properties=species:S:1:pos:R:3:forces:R:3 energy=        3.5098669662 pbc="T T T"
       O     0.0000000000     0.0000000000     0.0000000000    -24.665776487      6.794778631     -0.000000000
       H     0.7368400000     0.0000000000     0.0000000000     27.848359417     -3.498528823     -0.000000000
       H     0.2856300000     1.1058200000     0.0000000000     -3.182582878     -3.296249808     -0.000000000
