       3
Lattice="15.0 0.0 0.0 0.0 15.0 0.0 0.0 0.0 15.0" Properties=species:S:1:pos:R:3:forces:R:3 energy=        1.2212734885 pbc="T T T"
       O     0.0000000000     0.0000000000     0.0000000000    -12.057750714      1.512467370     -0.000000000
       H     0.8105300000     0.0000000000     0.0000000000     14.165258950     -2.595971994     -0.000000000
       H     0.0863600000     0.9539900000     0.0000000000     -2.107508185      1.083504624     -0.000000000
