       3
Lattice="15.0 0.0 0.0 0.0 15.0 0.0 0.0 0.0 15.0" Properties=species:S:1:pos:R:3:forces:R:3 energy=        2.8174130878 pbc="T T T"
       O     0.0000000000     0.0000000000     0.0000000000     -5.706518184      6.130145116     -0.000000000
       H     0.8473700000     0.0000000000     0.0000000000     10.103858044     -4.211019074     -0.000000000
       H     0.6263200000     1.0848100000     0.0000000000     -4.397339861     -1.919126042     -0.000000000
