       3
Lattice="15.0 0.0 0.0 0.0 15.0 0.0 0.0 0.0 15.0" Properties=species:S:1:pos:R:3:forces:R:3 energy=        4.3096148580 pbc="T T T"
       O     0.0000000000     0.0000000000     0.0000000000     14.557620791    -26.567294166     -0.000000000
       H     1.3631600000     0.0000000000     0.0000000000     -6.287046503      0.524769705     -0.000000000
       H    -0.2478400000     0.6939100000     0.0000000000     -8.270574339     26.042524461     -0.000000000
