       3
Lattice="15.0 0.0 0.0 0.0 15.0 0.0 0.0 0.0 15.0" Properties=species:S:1:pos:R:3:forces:R:3 energy=        4.8768908287 pbc="T T T"
       O     0.0000000000     0.0000000000     0.0000000000      0.093696546      0.672433731     -0.000000000
       H     1.4000000000     0.0000000000     0.0000000000     -5.426185068      1.587096297     -0.000000000
       H    -1.0547100000     0.8635900000     0.0000000000      5.332488523     -2.259530028     -0.000000000
