       3
Lattice="15.0 0.0 0.0 0.0 15.0 0.0 0.0 0.0 15.0" Properties=species:S:1:pos:R:3:forces:R:3 energy=        4.5260561814 pbc="T T T"
       O     0.0000000000     0.0000000000     0.0000000000    -18.313164251    -24.540999918     -0.000000000
       H     0.7368400000     0.0000000000     0.0000000000     26.858739337     -0.934168300     -0.000000000
       H    -0.2099100000     0.7063100000     0.0000000000     -8.545575035     25.475168218     -0.000000000
