       3
Lattice="15.0 0.0 0.0 0.0 15.0 0.0 0.0 0.0 15.0" Properties=species:S:1:pos:R:3:forces:R:3 energy=        2.1853410517 pbc="T T T"
       O     0.0000000000     0.0000000000     0.0000000000      2.639367710      5.889453494     -0.000000000
       H     1.0315800000     0.0000000000     0.0000000000     -2.571938955     -0.230181976     -0.000000000
       H    -0.0252800000     1.3997700000     0.0000000000     -0.067428755     -5.659271518     -0.000000000
