       3
Lattice="15.0 0.0 0.0 0.0 15.0 0.0 0.0 0.0 15.0" Properties=species:S:1:pos:R:3:forces:R:3 energy=        1.1322914508 pbc="T T T"
       O     0.0000000000     0.0000000000     0.0000000000      6.289279199    -12.964596402     -0.000000000
       H     1.0684200000     0.0000000000     0.0000000000     -3.839325159     -0.551296097     -0.000000000
       H    -0.1021700000     0.8040700000     0.0000000000     -2.449954040     13.515892499     -0.000000000
