       3
Lattice="15.0 0.0 0.0 0.0 15.0 0.0 0.0 0.0 15.0" Properties=species:S:1:pos:R:3:forces:R:3 energy=        1.7925109092 pbc="T T T"
       O     0.0000000000     0.0000000000     0.0000000000      5.485553360      6.102509446     -0.000000000
       H     1.1421100000     0.0000000000     0.0000000000     -4.852019152     -0.471431990     -0.000000000
       H     0.0452200000     1.2518100000     0.0000000000     -0.633534259     -5.631077456     -0.000000000
