       3
Lattice="15.0 0.0 0.0 0.0 15.0 0.0 0.0 0.0 15.0" Properties=species:S:1:pos:R:3:forces:R:3 energy=        1.4587365056 pbc="T T T"
       O     0.0000000000     0.0000000000     0.0000000000      1.048210509      6.089958138     -0.000000000
       H     0.9947400000     0.0000000000     0.0000000000     -1.315875484     -0.204473297     -0.000000000
       H    -0.0930500000     1.2861100000     0.0000000000      0.267664975     -5.885484840     -0.000000000
