       3
Lattice="15.0 0.0 0.0 0.0 15.0 0.0 0.0 0.0 15.0" Properties=species:S:1:pos:R:3:forces:R:3 energy=        1.4314132264 pbc="T T T"
       O     0.0000000000     0.0000000000     0.0000000000      5.807473317    -18.419769026     -0.000000000
       H     0.9578900000     0.0000000000     0.0000000000     -0.126307662     -0.130157685     -0.000000000
       H    -0.2204100000     0.7416200000     0.0000000000     -5.681165655     18.549926660     -0.000000000
