       3
Lattice="15.0 0.0 0.0 0.0 15.0 0.0 0.0 0.0 15.0" Properties=species:S:1:pos:R:3:forces:R:3 energy=        0.4532278002 pbc="T T T"
       O     0.0000000000     0.0000000000     0.0000000000     -3.193843287      4.738867728     -0.000000000
       H     0.9210500000     0.0000000000     0.0000000000      2.456085455     -0.123594376     -0.000000000
       H    -0.1984700000     1.0872900000     0.0000000000      0.737757832     -4.615273352     -0.000000000
