       3
Lattice="15.0 0.0 0.0 0.0 15.0 0.0 0.0 0.0 15.0" Properties=species:S:1:pos:R:3:forces:R:3 energy=        3.0411599473 pbc="T T T"
       O     0.0000000000     0.0000000000     0.0000000000      0.293636009      1.097607492     -0.000000000
       H     1.2157900000     0.0000000000     0.0000000000     -5.907722425      1.741612110     -0.000000000
       H    -0.9248100000     0.8448700000     0.0000000000      5.614086416     -2.839219551     -0.000000000
