       3
Lattice="15.0 0.0 0.0 0.0 15.0 0.0 0.0 0.0 15.0" Properties=species:S:1:pos:R:3:forces:R:3 energy=        0.8565829831 pbc="T T T"
       O     0.0000000000     0.0000000000     0.0000000000     -3.860055820      2.784209127     -0.000000000
       H     0.9578900000     0.0000000000     0.0000000000     -0.133329965      1.391440139     -0.000000000
       H    -0.6063900000     0.9678300000     0.0000000000      3.993385785     -4.175649266     -0.000000000
