       3
Lattice="15.0 0.0 0.0 0.0 15.0 0.0 0.0 0.0 15.0" Properties=species:S:1:pos:R:3:forces:R:3 energy=        0.3840368893 pbc="T T T"
       O     0.0000000000     0.0000000000     0.0000000000      4.669122357      0.477891684     -0.000000000
       H     1.0684200000     0.0000000000     0.0000000000     -3.477812972     -1.087092035     -0.000000000
       H     0.0345800000     0.9572700000     0.0000000000     -1.191309385      0.609200402     -0.000000000
