       3
Lattice="15.0 0.0 0.0 0.0 15.0 0.0 0.0 0.0 15.0" Properties=species:S:1:pos:R:3:forces:R:3 energy=        1.5124809740 pbc="T T T"
       O     0.0000000000     0.0000000000     0.0000000000      6.893210688      4.860829967     -0.000000000
       H     1.2157900000     0.0000000000     0.0000000000     -5.303840558     -0.913281059     -0.000000000
       H     0.1590900000     1.0937500000     0.0000000000     -1.589370130     -3.947548907     -0.000000000
