       3
Lattice="15.0 0.0 0.0 0.0 15.0 0.0 0.0 0.0 15.0" Properties=species:S:1:pos:R:3:forces:R:3 energy=        4.0217824252 pbc="T T T"
       O     0.0000000000     0.0000000000     0.0000000000    -13.606464998    -23.770401833     -0.000000000
       H     0.8473700000     0.0000000000     0.0000000000     10.725417848     -5.231547582     -0.000000000
       H     0.2226300000     0.7024000000     0.0000000000      2.881047151     29.001949415     -0.000000000
