       3
Lattice="15.0 0.0 0.0 0.0 15.0 0.0 0.0 0.0 15.0" Properties=species:S:1:pos:R:3:forces:R:3 energy=        4.2163771500 pbc="T T T"
       O     0.0000000000     0.0000000000     0.0000000000    -30.916215812    -11.856603191     -0.000000000
       H     0.7000000000     0.0000000000     0.0000000000     36.384605508      0.193297581     -0.000000000
       H    -0.3535600000     0.7293500000     0.0000000000     -5.468389695     11.663305610     -0.000000000
