       3
Lattice="15.0 0.0 0.0 0.0 15.0 0.0 0.0 0.0 15.0" Properties=species:S:1:pos:R:3:forces:R:3 energy=        0.6945995724 pbc="T T T"
       O     0.0000000000     0.0000000000     0.0000000000      5.880660780     -8.496107758     -0.000000000
       H     1.0684200000     0.0000000000     0.0000000000     -3.944398122     -0.263236145     -0.000000000
       H    -0.1521600000     0.8336000000     0.0000000000     -1.936262658      8.759343954     -0.000000000
