       3
Lattice="15.0 0.0 0.0 0.0 15.0 0.0 0.0 0.0 15.0" Properties=species:S:1:pos:R:3:forces:R:3 energy=        0.7723217127 pbc="T T T"
       O     0.0000000000     0.0000000000     0.0000000000      7.314024061     -8.932922399     -0.000000000
       H     1.0684200000     0.0000000000     0.0000000000     -4.404184758      0.753189137     -0.000000000
       H    -0.3696300000     0.7625000000     0.0000000000     -2.909839303      8.179733262     -0.000000000
