       3
Lattice="15.0 0.0 0.0 0.0 15.0 0.0 0.0 0.0 15.0" Properties=species:S:1:pos:R:3:forces:R:3 energy=        0.2872540874 pbc="T T T"
       O     0.0000000000     0.0000000000     0.0000000000      2.618228347      0.768194617     -0.000000000
       H     0.9947400000     0.0000000000     0.0000000000     -0.984610797     -1.642609371     -0.000000000
       H     0.0863600000     0.9539900000     0.0000000000     -1.633617551      0.874414754     -0.000000000
