       3
Lattice="15.0 0.0 0.0 0.0 15.0 0.0 0.0 0.0 15.0" Properties=species:S:1:pos:R:3:forces:R:3 energy=        1.7077128479 pbc="T T T"
       O     0.0000000000     0.0000000000     0.0000000000     -2.463844483      5.092355550     -0.000000000
       H     0.9578900000     0.0000000000     0.0000000000      0.263660737      0.653672537     -0.000000000
       H    -0.3778400000     1.2713600000     0.0000000000      2.200183745     -5.746028036     -0.000000000
