       3
Lattice="15.0 0.0 0.0 0.0 15.0 0.0 0.0 0.0 15.0" Properties=species:S:1:pos:R:3:forces:R:3 energy=        2.1139347013 pbc="T T T"
       O     0.0000000000     0.0000000000     0.0000000000      5.909606684      1.436776576     -0.000000000
       H     1.4000000000     0.0000000000     0.0000000000     -5.665268876     -0.189580792     -0.000000000
       H    -0.0179600000     0.9945800000     0.0000000000     -0.244337808     -1.247195784     -0.000000000
