       3
Lattice="15.0 0.0 0.0 0.0 15.0 0.0 0.0 0.0 15.0" Properties=species:S:1:pos:R:3:forces:R:3 energy=        2.2137027174 pbc="T T T"
       O     0.0000000000     0.0000000000     0.0000000000     -6.068258685      0.493500036     -0.000000000
       H     0.9578900000     0.0000000000     0.0000000000     -0.257822736      2.124362340     -0.000000000
       H    -1.0107300000     0.7399300000     0.0000000000      6.326081421     -2.617862325     -0.000000000
