       3
Lattice="15.0 0.0 0.0 0.0 15.0 0.0 0.0 0.0 15.0" Properties=species:S:1:pos:R:3:forces:R:3 energy=        2.1674930601 pbc="T T T"
       O     0.0000000000     0.0000000000     0.0000000000      5.274344746     -8.421007033     -0.000000000
       H     1.2894700000     0.0000000000     0.0000000000     -5.305257237     -1.231625639     -0.000000000
       H     0.1671900000     0.8307100000     0.0000000000      0.030912542      9.652632672     -0.000000000
