       3
Lattice="15.0 0.0 0.0 0.0 15.0 0.0 0.0 0.0 15.0" Properties=species:S:1:pos:R:3:forces:R:3 energy=        2.6793018151 pbc="T T T"
       O     0.0000000000     0.0000000000     0.0000000000     -5.681694119      6.037145288     -0.000000000
       H     0.8473700000     0.0000000000     0.0000000000     10.180742601     -4.456142972     -0.000000000
       H     0.6079000000     1.0529100000     0.0000000000     -4.499048533     -1.581002316     -0.000000000
