       3
Lattice="15.0 0.0 0.0 0.0 15.0 0.0 0.0 0.0 15.0" Properties=species:S:1:pos:R:3:forces:R:3 energy=        3.8167252953 pbc="T T T"
       O     0.0000000000     0.0000000000     0.0000000000      7.723697507      5.654247066     -0.000000000
       H     1.3631600000     0.0000000000     0.0000000000     -5.363754181     -0.775592712     -0.000000000
       H     0.4118700000     1.2994500000     0.0000000000     -2.359943275     -4.878654354     -0.000000000
