       3
Lattice="15.0 0.0 0.0 0.0 15.0 0.0 0.0 0.0 15.0" Properties=species:S:1:pos:R:3:forces:R:3 energy=        0.6275021967 pbc="T T T"
       O     0.0000000000     0.0000000000     0.0000000000      6.358080564     -8.841697199     -0.000000000
       H     1.0315800000     0.0000000000     0.0000000000     -3.407366872      0.726684342     -0.000000000
       H    -0.3696300000     0.7625000000     0.0000000000     -2.950713692      8.115012908     -0.000000000
