       3
Lattice="15.0 0.0 0.0 0.0 15.0 0.0 0.0 0.0 15.0" Properties=species:S:1:pos:R:3:forces:R:3 energy=        0.6307149362 pbc="T T T"
       O     0.0000000000     0.0000000000     0.0000000000      2.851673157      0.809494318     -0.000000000
       H     0.9947400000     0.0000000000     0.0000000000     -0.504039816     -2.626380599     -0.000000000
       H     0.2395600000     0.9274500000     0.0000000000     -2.347633342      1.816886282     -0.000000000
