       3
Lattice="15.0 0.0 0.0 0.0 15.0 0.0 0.0 0.0 15.0" Properties=species:S:1:pos:R:3:forces:R:3 energy=        1.0657759199 pbc="T T T"
       O     0.0000000000     0.0000000000     0.0000000000      6.305775250     -2.258556505     -0.000000000
       H     1.2157900000     0.0000000000     0.0000000000     -5.685977116     -0.326982924     -0.000000000
       H    -0.0664600000     0.9186500000     0.0000000000     -0.619798134      2.585539481     -0.000000000
