       3
Lattice="15.0 0.0 0.0 0.0 15.0 0.0 0.0 0.0 15.0" Properties=species:S:1:pos:R:3:forces:R:3 energy=        3.8444328047 pbc="T T T"
       O     0.0000000000     0.0000000000     0.0000000000      5.598364678      5.605962240     -0.000000000
       H     1.3631600000     0.0000000000     0.0000000000     -5.686591765     -0.013123431     -0.000000000
       H    -0.0252800000     1.3997700000     0.0000000000      0.088227087     -5.592838809     -0.000000000
