       3
Lattice="15.0 0.0 0.0 0.0 15.0 0.0 0.0 0.0 15.0" Properties=species:S:1:pos:R:3:forces:R:3 energy=        2.7599658981 pbc="T T T"
       O     0.0000000000     0.0000000000     0.0000000000     14.927414300    -25.708599504     -0.000000000
       H     1.1052600000     0.0000000000     0.0000000000     -5.173366370      0.503954764     -0.000000000
       H    -0.2850500000     0.6794700000     0.0000000000     -9.754047930     25.204644740     -0.000000000
