       3
Lattice="15.0 0.0 0.0 0.0 15.0 0.0 0.0 0.0 15.0" Properties=species:S:1:pos:R:3:forces:R:3 energy=        2.6327821793 pbc="T T T"
       O     0.0000000000     0.0000000000     0.0000000000      3.523983013     -8.162289861     -0.000000000
       H     1.2894700000     0.0000000000     0.0000000000     -4.533865195     -2.118327444     -0.000000000
       H     0.3418600000     0.7753500000     0.0000000000      1.009882182     10.280617253     -0.000000000
