       3
Lattice="15.0 0.0 0.0 0.0 15.0 0.0 0.0 0.0 15.0" Properties=species:S:1:pos:R:3:forces:R:3 energy=        3.7232138380 pbc="T T T"
       O     0.0000000000     0.0000000000     0.0000000000    -11.924432935    -24.839554398     -0.000000000
       H     0.7736800000     0.0000000000     0.0000000000     19.375623152     -1.146041493     -0.000000000
       H    -0.1713700000     0.7166400000     0.0000000000     -7.451190217     25.985595891     -0.000000000
