       3
Lattice="15.0 0.0 0.0 0.0 15.0 0.0 0.0 0.0 15.0" Properties=species:S:1:pos:R:3:forces:R:3 energy=        1.5979748821 pbc="T T T"
       O     0.0000000000     0.0000000000     0.0000000000     12.243704243    -12.681108747     -0.000000000
       H     1.1052600000     0.0000000000     0.0000000000     -5.475887499      1.281974753     -0.000000000
       H    -0.5020800000     0.6363000000     0.0000000000     -6.767816745     11.399134046     -0.000000000
