       3
Lattice="15.0 0.0 0.0 0.0 15.0 0.0 0.0 0.0 15.0" Properties=species:S:1:pos:R:3:forces:R:3 energy=        4.4991808887 pbc="T T T"
       O     0.0000000000     0.0000000000     0.0000000000    -18.036678743    -23.471636419     -0.000000000
       H     0.8105300000     0.0000000000     0.0000000000     15.376435259     -5.710044916     -0.000000000
       H     0.2226300000     0.7024000000     0.0000000000      2.660243484     29.181681335     -0.000000000
