       3
Lattice="15.0 0.0 0.0 0.0 15.0 0.0 0.0 0.0 15.0" Properties=species:S:1:pos:R:3:forces:R:3 energy=        2.7354491903 pbc="T T T"
       O     0.0000000000     0.0000000000     0.0000000000    -29.081543505      4.202598193     -0.000000000
       H     0.7368400000     0.0000000000     0.0000000000     27.073528471      0.476009893     -0.000000000
       H    -0.3717600000     1.0408600000     0.0000000000      2.008014982     -4.678608086     -0.000000000
