       3
Lattice="15.0 0.0 0.0 0.0 15.0 0.0 0.0 0.0 15.0" Properties=species:S:1:pos:R:3:forces:R:3 energy=        3.3289796859 pbc="T T T"
       O     0.0000000000     0.0000000000     0.0000000000    -16.248000098      6.205512721     -0.000000000
       H     0.7736800000     0.0000000000     0.0000000000     20.695543806     -5.151114233     -0.000000000
       H     0.5166700000     1.0185600000     0.0000000000     -4.447543708     -1.054398488     -0.000000000
