       3
Lattice="15.0 0.0 0.0 0.0 15.0 0.0 0.0 0.0 15.0" Properties=species:S:1:pos:R:3:forces:R:3 energy=        1.1898942243 pbc="T T T"
       O     0.0000000000     0.0000000000     0.0000000000    -11.096981870     -5.521029715     -0.000000000
       H     0.8105300000     0.0000000000     0.0000000000     12.796252571      1.357958138     -0.000000000
       H    -0.5477200000     0.6941400000     0.0000000000     -1.699270701      4.163071577     -0.000000000
