       3
Lattice="15.0 0.0 0.0 0.0 15.0 0.0 0.0 0.0 15.0" Properties=species:S:1:pos:R:3:forces:R:3 energy=        2.6073727340 pbc="T T T"
       O     0.0000000000     0.0000000000     0.0000000000    -14.932499944      0.518754606     -0.000000000
       H     0.8473700000     0.0000000000     0.0000000000      8.475057406      2.289292618     -0.000000000
       H    -1.0107300000     0.7399300000     0.0000000000      6.457442538     -2.808047224     -0.000000000
