       3
Lattice="15.0 0.0 0.0 0.0 15.0 0.0 0.0 0.0 15.0" Properties=species:S:1:pos:R:3:forces:R:3 energy=        4.7932295640 pbc="T T T"
       O     0.0000000000     0.0000000000     0.0000000000    -32.424403784      1.720905978     -0.000000000
       H     0.7368400000     0.0000000000     0.0000000000     27.115086825      2.368784223     -0.000000000
       H    -0.9011000000     1.0228500000     0.0000000000      5.309316959     -4.089690253     -0.000000000
