       3
Lattice="15.0 0.0 0.0 0.0 15.0 0.0 0.0 0.0 15.0" Properties=species:S:1:pos:R:3:forces:R:3 energy=        3.4935738332 pbc="T T T"
       O     0.0000000000     0.0000000000     0.0000000000     24.516060308    -21.091312668     -0.000000000
       H     1.1421100000     0.0000000000     0.0000000000     -6.313880246      1.439736792     -0.000000000
       H    -0.5440000000     0.4969800000     0.0000000000    -18.202180063     19.651575825     -0.000000000
