       3
Lattice="15.0 0.0 0.0 0.0 15.0 0.0 0.0 0.0 15.0" Properties=species:S:1:pos:R:3:forces:R:3 energy=        3.2110450601 pbc="T T T"
       O     0.0000000000     0.0000000000     0.0000000000      5.639506256      5.679757923     -0.000000000
       H     1.2526300000     0.0000000000     0.0000000000     -5.682249478     -0.065539507     -0.000000000
       H    -0.0252800000     1.3997700000     0.0000000000      0.042743273     -5.614218416     -0.000000000
