       3
Lattice="15.0 0.0 0.0 0.0 15.0 0.0 0.0 0.0 15.0" Properties=species:S:1:pos:R:3:forces:R:3 energy=        4.2528541680 pbc="T T T"
       O     0.0000000000     0.0000000000     0.0000000000     12.096268582    -26.967360527     -0.000000000
       H     1.3631600000     0.0000000000     0.0000000000     -6.169504147      0.243748974     -0.000000000
       H    -0.1713700000     0.7166400000     0.0000000000     -5.926764435     26.723611553     -0.000000000
