       3
Lattice="15.0 0.0 0.0 0.0 15.0 0.0 0.0 0.0 15.0" Properties=species:S:1:pos:R:3:forces:R:3 energy=        4.3334669929 pbc="T T T"
       O     0.0000000000     0.0000000000     0.0000000000    -33.180213597      0.810091019     -0.000000000
       H     0.7368400000     0.0000000000     0.0000000000     26.840744538      2.488631728     -0.000000000
       H    -0.9691900000     0.7935700000     0.0000000000      6.339469059     -3.298722748     -0.000000000
