       3
Lattice="15.0 0.0 0.0 0.0 15.0 0.0 0.0 0.0 15.0" Properties=species:S:1:pos:R:3:forces:R:3 energy=        4.7501282578 pbc="T T T"
       O     0.0000000000     0.0000000000     0.0000000000     11.144070824    -36.542192249     -0.000000000
       H     1.2526300000     0.0000000000     0.0000000000     -6.029118403     -0.244475671     -0.000000000
       H    -0.0882300000     0.6944200000     0.0000000000     -5.114952421     36.786667919     -0.000000000
