       3
Lattice="15.0 0.0 0.0 0.0 15.0 0.0 0.0 0.0 15.0" Properties=species:S:1:pos:R:3:forces:R:3 energy=        1.4845279281 pbc="T T T"
       O     0.0000000000     0.0000000000     0.0000000000    -11.831920383      5.304670716     -0.000000000
       H     0.8105300000     0.0000000000     0.0000000000     14.181991646     -2.541190655     -0.000000000
       H     0.1537900000     1.0572900000     0.0000000000     -2.350071263     -2.763480061     -0.000000000
