       3
Lattice="15.0 0.0 0.0 0.0 15.0 0.0 0.0 0.0 15.0" Properties=species:S:1:pos:R:3:forces:R:3 energy=        2.5288179824 pbc="T T T"
       O     0.0000000000     0.0000000000     0.0000000000      2.441385783      4.563413920     -0.000000000
       H     1.1421100000     0.0000000000     0.0000000000     -5.069631873      0.800681857     -0.000000000
       H    -0.4585100000     1.2837300000     0.0000000000      2.628246090     -5.364095777     -0.000000000
