       3
Lattice="15.0 0.0 0.0 0.0 15.0 0.0 0.0 0.0 15.0" Properties=species:S:1:pos:R:3:forces:R:3 energy=        2.7655395927 pbc="T T T"
       O     0.0000000000     0.0000000000     0.0000000000     -2.677191227    -25.306802996     -0.000000000
       H     0.8473700000     0.0000000000     0.0000000000      8.879340584     -1.170874248     -0.000000000
       H    -0.1323200000     0.7248600000     0.0000000000     -6.202149357     26.477677243     -0.000000000
