       3
Lattice="15.0 0.0 0.0 0.0 15.0 0.0 0.0 0.0 15.0" Properties=species:S:1:pos:R:3:forces:R:3 energy=        2.1131597782 pbc="T T T"
       O     0.0000000000     0.0000000000     0.0000000000    -19.499721773      6.026425686     -0.000000000
       H     0.7736800000     0.0000000000     0.0000000000     19.771788427     -0.942140472     -0.000000000
       H    -0.0824100000     1.1391300000     0.0000000000     -0.272066654     -5.084285214     -0.000000000
