       3
Lattice="15.0 0.0 0.0 0.0 15.0 0.0 0.0 0.0 15.0" Properties=species:S:1:pos:R:3:forces:R:3 energy=        0.6882635590 pbc="T T T"
       O     0.0000000000     0.0000000000     0.0000000000     -9.692088737     -1.749392889     -0.000000000
       H     0.8473700000     0.0000000000     0.0000000000      8.231410454      1.482873701     -0.000000000
       H    -0.5933600000     0.7519800000     0.0000000000      1.460678283      0.266519188     -0.000000000
