       3
Lattice="15.0 0.0 0.0 0.0 15.0 0.0 0.0 0.0 15.0" Properties=species:S:1:pos:R:3:forces:R:3 energy=        2.5399883598 pbc="T T T"
       O     0.0000000000     0.0000000000     0.0000000000    -10.660138639      1.511792609     -0.000000000
       H     0.8842100000     0.0000000000     0.0000000000      5.066970060      2.143694782     -0.000000000
       H    -0.9293500000     0.9462800000     0.0000000000      5.593168579     -3.655487391     -0.000000000
