       3
Lattice="15.0 0.0 0.0 0.0 15.0 0.0 0.0 0.0 15.0" Properties=species:S:1:pos:R:3:forces:R:3 energy=        0.7655030346 pbc="T T T"
       O     0.0000000000     0.0000000000     0.0000000000      6.000594314      2.030333094     -0.000000000
       H     1.1421100000     0.0000000000     0.0000000000     -4.700977414     -1.050366483     -0.000000000
       H     0.0896800000     0.9906900000     0.0000000000     -1.299616900     -0.979966559     -0.000000000
