       3
Lattice="15.0 0.0 0.0 0.0 15.0 0.0 0.0 0.0 15.0" Properties=species:S:1:pos:R:3:forces:R:3 energy=        4.0237399225 pbc="T T T"
       O     0.0000000000     0.0000000000     0.0000000000      1.071248221      2.382454219     -0.000000000
       H     1.3631600000     0.0000000000     0.0000000000     -5.725244205      1.322067320     -0.000000000
       H    -0.8215900000     1.0412100000     0.0000000000      4.653995933     -3.704521540     -0.000000000
