       3
Lattice="15.0 0.0 0.0 0.0 15.0 0.0 0.0 0.0 15.0" Properties=species:S:1:pos:R:3:forces:R:3 energy=        0.5189911405 pbc="T T T"
       O     0.0000000000     0.0000000000     0.0000000000      1.581540603      4.271653840     -0.000000000
       H     1.0315800000     0.0000000000     0.0000000000     -2.893959545      0.242704385     -0.000000000
       H    -0.2570500000     1.0749500000     0.0000000000      1.312418943     -4.514358174     -0.000000000
