       3
Lattice="15.0 0.0 0.0 0.0 15.0 0.0 0.0 0.0 15.0" Properties=species:S:1:pos:R:3:forces:R:3 energy=        4.7966480215 pbc="T T T"
       O     0.0000000000     0.0000000000     0.0000000000     -3.086166001    -32.801685686     -0.000000000
       H     0.7736800000     0.0000000000     0.0000000000     18.854171663      0.077438424     -0.000000000
       H    -0.3053400000     0.6298900000     0.0000000000    -15.768005662     32.724247262     -0.000000000
