       3
Lattice="15.0 0.0 0.0 0.0 15.0 0.0 0.0 0.0 15.0" Properties=species:S:1:pos:R:3:forces:R:3 energy=        0.7164333980 pbc="T T T"
       O     0.0000000000     0.0000000000     0.0000000000      3.051880736     -2.335337755     -0.000000000
       H     1.0684200000     0.0000000000     0.0000000000     -4.585471425      1.516792327     -0.000000000
       H    -0.6332000000     0.7187500000     0.0000000000      1.533590689      0.818545428     -0.000000000
