       3
Lattice="15.0 0.0 0.0 0.0 15.0 0.0 0.0 0.0 15.0" Properties=species:S:1:pos:R:3:forces:R:3 energy=        3.9095896848 pbc="T T T"
       O     0.0000000000     0.0000000000     0.0000000000    -37.519446807      5.307424729     -0.000000000
       H     0.7000000000     0.0000000000     0.0000000000     37.005190451     -0.550067109     -0.000000000
       H    -0.1984700000     1.0872900000     0.0000000000      0.514256356     -4.757357620     -0.000000000
