       3
Lattice="15.0 0.0 0.0 0.0 15.0 0.0 0.0 0.0 15.0" Properties=species:S:1:pos:R:3:forces:R:3 energy=        1.7953325503 pbc="T T T"
       O     0.0000000000     0.0000000000     0.0000000000      0.961579461      6.477153138     -0.000000000
       H     0.9578900000     0.0000000000     0.0000000000      0.648508577     -1.143058909     -0.000000000
       H     0.1909100000     1.3125100000     0.0000000000     -1.610088037     -5.334094229     -0.000000000
