       3
Lattice="15.0 0.0 0.0 0.0 15.0 0.0 0.0 0.0 15.0" Properties=species:S:1:pos:R:3:forces:R:3 energy=        1.5167010736 pbc="T T T"
       O     0.0000000000     0.0000000000     0.0000000000      3.208730495     -4.282502152     -0.000000000
       H     1.0684200000     0.0000000000     0.0000000000     -2.069324508     -3.441761923     -0.000000000
       H     0.3567200000     0.8090600000     0.0000000000     -1.139405987      7.724264076     -0.000000000
