       3
Lattice="15.0 0.0 0.0 0.0 15.0 0.0 0.0 0.0 15.0" Properties=species:S:1:pos:R:3:forces:R:3 energy=        3.7228284867 pbc="T T T"
       O     0.0000000000     0.0000000000     0.0000000000     -8.829522145    -23.918914169     -0.000000000
       H     0.9210500000     0.0000000000     0.0000000000      4.490474209     -4.897412463     -0.000000000
       H     0.2603300000     0.6893200000     0.0000000000      4.339047988     28.816326683     -0.000000000
