       3
Lattice="15.0 0.0 0.0 0.0 15.0 0.0 0.0 0.0 15.0" Properties=species:S:1:pos:R:3:forces:R:3 energy=        3.7125586266 pbc="T T T"
       O     0.0000000000     0.0000000000     0.0000000000    -10.791717631      6.221274260     -0.000000000
       H     0.8105300000     0.0000000000     0.0000000000     14.404260791     -3.218516376     -0.000000000
       H     0.6333300000     1.2485500000     0.0000000000     -3.612543109     -3.002757884     -0.000000000
