       3
Lattice="15.0 0.0 0.0 0.0 15.0 0.0 0.0 0.0 15.0" Properties=species:S:1:pos:R:3:forces:R:3 energy=        2.1796467617 pbc="T T T"
       O     0.0000000000     0.0000000000     0.0000000000      4.657498343      5.005403320     -0.000000000
       H     1.2894700000     0.0000000000     0.0000000000     -5.926707665      0.274665475     -0.000000000
       H    -0.2117100000     1.1597900000     0.0000000000      1.269209322     -5.280068795     -0.000000000
