       3
Lattice="15.0 0.0 0.0 0.0 15.0 0.0 0.0 0.0 15.0" Properties=species:S:1:pos:R:3:forces:R:3 energy=        3.9164336341 pbc="T T T"
       O     0.0000000000     0.0000000000     0.0000000000    -16.162427111      6.546247609     -0.000000000
       H     0.7736800000     0.0000000000     0.0000000000     20.594619526     -4.804837433     -0.000000000
       H     0.6263200000     1.0848100000     0.0000000000     -4.432192415     -1.741410176     -0.000000000
