       3
Lattice="15.0 0.0 0.0 0.0 15.0 0.0 0.0 0.0 15.0" Properties=species:S:1:pos:R:3:forces:R:3 energy=        3.1786568684 pbc="T T T"
       O     0.0000000000     0.0000000000     0.0000000000     15.711378014    -25.908043824     -0.000000000
       H     1.1789500000     0.0000000000     0.0000000000     -6.076717104      0.572831153     -0.000000000
       H    -0.2850500000     0.6794700000     0.0000000000     -9.634660961     25.335212671     -0.000000000
