       3
Lattice="15.0 0.0 0.0 0.0 15.0 0.0 0.0 0.0 15.0" Properties=species:S:1:pos:R:3:forces:R:3 energy=        1.9153250644 pbc="T T T"
       O     0.0000000000     0.0000000000     0.0000000000      6.602130974     -0.110545610     -0.000000000
       H     1.2526300000     0.0000000000     0.0000000000     -4.571121731     -2.104480967     -0.000000000
       H     0.3864500000     0.8764800000     0.0000000000     -2.031009243      2.215026525     -0.000000000
