       3
Lattice="15.0 0.0 0.0 0.0 15.0 0.0 0.0 0.0 15.0" Properties=species:S:1:pos:R:3:forces:R:3 energy=        1.7355203456 pbc="T T T"
       O     0.0000000000     0.0000000000     0.0000000000      6.167501463     -2.023971461     -0.000000000
       H     1.2526300000     0.0000000000     0.0000000000     -4.915597987     -1.706203478     -0.000000000
       H     0.2782900000     0.8780000000     0.0000000000     -1.251903476      3.730174939     -0.000000000
