       3
Lattice="15.0 0.0 0.0 0.0 15.0 0.0 0.0 0.0 15.0" Properties=species:S:1:pos:R:3:forces:R:3 energy=        1.6709686930 pbc="T T T"
       O     0.0000000000     0.0000000000     0.0000000000    -10.531237915      1.119023454     -0.000000000
       H     0.8842100000     0.0000000000     0.0000000000      4.768800422      2.056380232     -0.000000000
       H    -0.8704100000     0.7951800000     0.0000000000      5.762437493     -3.175403635     -0.000000000
