       3
Lattice="15.0 0.0 0.0 0.0 15.0 0.0 0.0 0.0 15.0" Properties=species:S:1:pos:R:3:forces:R:3 energy=        2.6091641058 pbc="T T T"
       O     0.0000000000     0.0000000000     0.0000000000    -25.607891865      1.783588115     -0.000000000
       H     0.7368400000     0.0000000000     0.0000000000     27.592320204     -2.617203402     -0.000000000
       H     0.0345800000     0.9572700000     0.0000000000     -1.984428339      0.833615288     -0.000000000
