       3
Lattice="15.0 0.0 0.0 0.0 15.0 0.0 0.0 0.0 15.0" Properties=species:S:1:pos:R:3:forces:R:3 energy=        2.3542371232 pbc="T T T"
       O     0.0000000000     0.0000000000     0.0000000000      6.182633543     -4.103510608     -0.000000000
       H     1.3631600000     0.0000000000     0.0000000000     -6.248691642      1.175935775     -0.000000000
       H    -0.5305600000     0.7528900000     0.0000000000      0.066058099      2.927574833     -0.000000000
