       3
Lattice="15.0 0.0 0.0 0.0 15.0 0.0 0.0 0.0 15.0" Properties=species:S:1:pos:R:3:forces:R:3 energy=        1.2654969868 pbc="T T T"
       O     0.0000000000     0.0000000000     0.0000000000     -6.122506416      3.640525878     -0.000000000
       H     0.9210500000     0.0000000000     0.0000000000      2.229679455      1.322877732     -0.000000000
       H    -0.5887900000     1.0637100000     0.0000000000      3.892826962     -4.963403610     -0.000000000
