       3
Lattice="15.0 0.0 0.0 0.0 15.0 0.0 0.0 0.0 15.0" Properties=species:S:1:pos:R:3:forces:R:3 energy=        1.2955438700 pbc="T T T"
       O     0.0000000000     0.0000000000     0.0000000000    -12.512839016      5.136366327     -0.000000000
       H     0.8105300000     0.0000000000     0.0000000000     13.977258153     -1.768848128     -0.000000000
       H     0.0385700000     1.0677200000     0.0000000000     -1.464419188     -3.367518199     -0.000000000
