       3
Lattice="15.0 0.0 0.0 0.0 15.0 0.0 0.0 0.0 15.0" Properties=species:S:1:pos:R:3:forces:R:3 energy=        1.6319386429 pbc="T T T"
       O     0.0000000000     0.0000000000     0.0000000000     -8.172282561    -12.286057737     -0.000000000
       H     0.8105300000     0.0000000000     0.0000000000     13.125229130      0.133764585     -0.000000000
       H    -0.3135500000     0.7474200000     0.0000000000     -4.952946569     12.152293152     -0.000000000
