       3
Lattice="15.0 0.0 0.0 0.0 15.0 0.0 0.0 0.0 15.0" Properties=species:S:1:pos:R:3:forces:R:3 energy=        4.0372142580 pbc="T T T"
       O     0.0000000000     0.0000000000     0.0000000000      0.213750922      0.694401401     -0.000000000
       H     1.3263200000     0.0000000000     0.0000000000     -5.864318738      1.688109845     -0.000000000
       H    -0.9977000000     0.8169100000     0.0000000000      5.650567816     -2.382511247     -0.000000000
