       3
Lattice="15.0 0.0 0.0 0.0 15.0 0.0 0.0 0.0 15.0" Properties=species:S:1:pos:R:3:forces:R:3 energy=        0.4870939048 pbc="T T T"
       O     0.0000000000     0.0000000000     0.0000000000     -5.041151235      4.589299285     -0.000000000
       H     0.8842100000     0.0000000000     0.0000000000      5.466724340     -0.839792469     -0.000000000
       H    -0.0770900000     1.0656300000     0.0000000000     -0.425573053     -3.749506816     -0.000000000
