       3
Lattice="15.0 0.0 0.0 0.0 15.0 0.0 0.0 0.0 15.0" Properties=species:S:1:pos:R:3:forces:R:3 energy=        1.5929517609 pbc="T T T"
       O     0.0000000000     0.0000000000     0.0000000000     -1.549246863      4.435913060     -0.000000000
       H     0.9947400000     0.0000000000     0.0000000000     -1.558719686      0.992825475     -0.000000000
       H    -0.4988300000     1.1890800000     0.0000000000      3.107966549     -5.428738535     -0.000000000
