       3
Lattice="15.0 0.0 0.0 0.0 15.0 0.0 0.0 0.0 15.0" Properties=species:S:1:pos:R:3:forces:R:3 energy=        0.2218901640 pbc="T T T"
       O     0.0000000000     0.0000000000     0.0000000000      3.212871465     -5.201964610     -0.000000000
       H     0.9947400000     0.0000000000     0.0000000000     -1.878086228      0.337154316     -0.000000000
       H    -0.2974100000     0.8326900000     0.0000000000     -1.334785237      4.864810242     -0.000000000
