       3
Lattice="15.0 0.0 0.0 0.0 15.0 0.0 0.0 0.0 15.0" Properties=species:S:1:pos:R:3:forces:R:3 energy=        2.3946083083 pbc="T T T"
       O     0.0000000000     0.0000000000     0.0000000000      5.830925182     -2.246035689     -0.000000000
       H     1.3631600000     0.0000000000     0.0000000000     -4.876292383     -1.496932603     -0.000000000
       H     0.3254100000     0.8616500000     0.0000000000     -0.954632800      3.742968292     -0.000000000
