       3
Lattice="15.0 0.0 0.0 0.0 15.0 0.0 0.0 0.0 15.0" Properties=species:S:1:pos:R:3:forces:R:3 energy=        1.5741117183 pbc="T T T"
       O     0.0000000000     0.0000000000     0.0000000000      3.638044196      0.934839924     -0.000000000
       H     1.2526300000     0.0000000000     0.0000000000     -6.201373089      1.053800347     -0.000000000
       H    -0.4995800000     0.9025400000     0.0000000000      2.563328893     -1.988640271     -0.000000000
