       3
Lattice="15.0 0.0 0.0 0.0 15.0 0.0 0.0 0.0 15.0" Properties=species:S:1:pos:R:3:forces:R:3 energy=        3.3821445409 pbc="T T T"
       O     0.0000000000     0.0000000000     0.0000000000      0.079733032      0.710590771     -0.000000000
       H     1.2157900000     0.0000000000     0.0000000000     -5.864796140      1.814744809     -0.000000000
       H    -0.9977000000     0.8169100000     0.0000000000      5.785063057     -2.525335580     -0.000000000
