       3
Lattice="15.0 0.0 0.0 0.0 15.0 0.0 0.0 0.0 15.0" Properties=species:S:1:pos:R:3:forces:R:3 energy=        3.3942976329 pbc="T T T"
       O     0.0000000000     0.0000000000     0.0000000000      0.539747262      0.437036939     -0.000000000
       H     1.3263200000     0.0000000000     0.0000000000     -6.058328977      1.663219652     -0.000000000
       H    -0.9121800000     0.7468900000     0.0000000000      5.518581715     -2.100256540     -0.000000000
