       3
Lattice="15.0 0.0 0.0 0.0 15.0 0.0 0.0 0.0 15.0" Properties=species:S:1:pos:R:3:forces:R:3 energy=        0.5786378972 pbc="T T T"
       O     0.0000000000     0.0000000000     0.0000000000     -1.299472969     -3.863121759     -0.000000000
       H     0.9210500000     0.0000000000     0.0000000000      3.055641130     -2.204137024     -0.000000000
       H     0.0797100000     0.8806100000     0.0000000000     -1.756168109      6.067258783     -0.000000000
