       3
Lattice="15.0 0.0 0.0 0.0 15.0 0.0 0.0 0.0 15.0" Properties=species:S:1:pos:R:3:forces:R:3 energy=        0.9536274714 pbc="T T T"
       O     0.0000000000     0.0000000000     0.0000000000      0.386496843    -12.420579255     -0.000000000
       H     0.9210500000     0.0000000000     0.0000000000      2.497514277     -1.026109964     -0.000000000
       H    -0.1021700000     0.8040700000     0.0000000000     -2.884011120     13.446689219     -0.000000000
