       3
Lattice="15.0 0.0 0.0 0.0 15.0 0.0 0.0 0.0 15.0" Properties=species:S:1:pos:R:3:forces:R:3 energy=        5.2305680835 pbc="T T T"
       O     0.0000000000     0.0000000000     0.0000000000     -5.115297618    -24.625099302     -0.000000000
       H     1.4000000000     0.0000000000     0.0000000000     -4.249963490     -1.925703646     -0.000000000
       H     0.3333300000     0.6571300000     0.0000000000      9.365261056     26.550802949     -0.000000000
