       3
Lattice="15.0 0.0 0.0 0.0 15.0 0.0 0.0 0.0 15.0" Properties=species:S:1:pos:R:3:forces:R:3 energy=        4.0885938174 pbc="T T T"
       O     0.0000000000     0.0000000000     0.0000000000    -34.879644580      5.014335028     -0.000000000
       H     0.7000000000     0.0000000000     0.0000000000     37.468957979     -3.442751336     -0.000000000
       H     0.1484800000     1.0208400000     0.0000000000     -2.589313399     -1.571583693     -0.000000000
