       3
Lattice="15.0 0.0 0.0 0.0 15.0 0.0 0.0 0.0 15.0" Properties=species:S:1:pos:R:3:forces:R:3 energy=        3.0685006635 pbc="T T T"
       O     0.0000000000     0.0000000000     0.0000000000      1.271415073      2.758220867     -0.000000000
       H     1.2157900000     0.0000000000     0.0000000000     -5.752762221      1.389629773     -0.000000000
       H    -0.7640100000     1.0841600000     0.0000000000      4.481347148     -4.147850639     -0.000000000
