       3
Lattice="15.0 0.0 0.0 0.0 15.0 0.0 0.0 0.0 15.0" Properties=species:S:1:pos:R:3:forces:R:3 energy=        2.3445305170 pbc="T T T"
       O     0.0000000000     0.0000000000     0.0000000000      9.588236329    -13.652107603     -0.000000000
       H     1.2894700000     0.0000000000     0.0000000000     -6.272482123      0.378940367     -0.000000000
       H    -0.2309000000     0.7769400000     0.0000000000     -3.315754206     13.273167236     -0.000000000
