       3
Lattice="15.0 0.0 0.0 0.0 15.0 0.0 0.0 0.0 15.0" Properties=species:S:1:pos:R:3:forces:R:3 energy=        4.0000175097 pbc="T T T"
       O     0.0000000000     0.0000000000     0.0000000000     20.166756288    -15.657843250     -0.000000000
       H     1.3263200000     0.0000000000     0.0000000000     -6.820466792      1.470979772     -0.000000000
       H    -0.5986200000     0.4901400000     0.0000000000    -13.346289496     14.186863477     -0.000000000
