       3
Lattice="15.0 0.0 0.0 0.0 15.0 0.0 0.0 0.0 15.0" Properties=species:S:1:pos:R:3:forces:R:3 energy=        0.4539635390 pbc="T T T"
       O     0.0000000000     0.0000000000     0.0000000000     -5.418294503      4.394083249     -0.000000000
       H     0.8842100000     0.0000000000     0.0000000000      5.382444721     -0.543492847     -0.000000000
       H    -0.1346700000     1.0599000000     0.0000000000      0.035849834     -3.850590402     -0.000000000
