       3
Lattice="15.0 0.0 0.0 0.0 15.0 0.0 0.0 0.0 15.0" Properties=species:S:1:pos:R:3:forces:R:3 energy=        3.7452634173 pbc="T T T"
       O     0.0000000000     0.0000000000     0.0000000000    -31.057649436      3.785229637     -0.000000000
       H     0.7368400000     0.0000000000     0.0000000000     27.094956364      1.523398368     -0.000000000
       H    -0.6066300000     1.0959400000     0.0000000000      3.962693072     -5.308628006     -0.000000000
