       3
Lattice="15.0 0.0 0.0 0.0 15.0 0.0 0.0 0.0 15.0" Properties=species:S:1:pos:R:3:forces:R:3 energy=        3.2219449236 pbc="T T T"
       O     0.0000000000     0.0000000000     0.0000000000      7.881557711      5.786468217     -0.000000000
       H     1.2894700000     0.0000000000     0.0000000000     -5.374501808     -0.957461734     -0.000000000
       H     0.4007300000     1.2643300000     0.0000000000     -2.507055851     -4.829006482     -0.000000000
