       3
Lattice="15.0 0.0 0.0 0.0 15.0 0.0 0.0 0.0 15.0" Properties=species:S:1:pos:R:3:forces:R:3 energy=        3.5619749499 pbc="T T T"
       O     0.0000000000     0.0000000000     0.0000000000      8.546864341      4.964183118     -0.000000000
       H     1.2894700000     0.0000000000     0.0000000000     -4.887211452     -1.455412558     -0.000000000
       H     0.6631600000     1.1486300000     0.0000000000     -3.659652889     -3.508770611     -0.000000000
