       3
Lattice="15.0 0.0 0.0 0.0 15.0 0.0 0.0 0.0 15.0" Properties=species:S:1:pos:R:3:forces:R:3 energy=        2.9807307870 pbc="T T T"
       O     0.0000000000     0.0000000000     0.0000000000      4.137452271     -4.976151609     -0.000000000
       H     1.4000000000     0.0000000000     0.0000000000     -4.401522173     -1.782225738     -0.000000000
       H     0.4000000000     0.7885600000     0.0000000000      0.264069851      6.758377346     -0.000000000
