       3
Lattice="15.0 0.0 0.0 0.0 15.0 0.0 0.0 0.0 15.0" Properties=species:S:1:pos:R:3:forces:R:3 energy=        1.0557555256 pbc="T T T"
       O     0.0000000000     0.0000000000     0.0000000000      2.162029739      4.494125691     -0.000000000
       H     0.9578900000     0.0000000000     0.0000000000      1.383056282     -3.182132935     -0.000000000
       H     0.3774800000     0.9995200000     0.0000000000     -3.545085969     -1.311992756     -0.000000000
