       3
Lattice="15.0 0.0 0.0 0.0 15.0 0.0 0.0 0.0 15.0" Properties=species:S:1:pos:R:3:forces:R:3 energy=        2.9915327956 pbc="T T T"
       O     0.0000000000     0.0000000000     0.0000000000     10.586612150    -20.304151529     -0.000000000
       H     0.8473700000     0.0000000000     0.0000000000      7.600599406      1.442303628     -0.000000000
       H    -0.5440000000     0.4969800000     0.0000000000    -18.187211607     18.861847849     -0.000000000
