       3
Lattice="15.0 0.0 0.0 0.0 15.0 0.0 0.0 0.0 15.0" Properties=species:S:1:pos:R:3:forces:R:3 energy=        1.6610639825 pbc="T T T"
       O     0.0000000000     0.0000000000     0.0000000000      5.373890862      6.213721178     -0.000000000
       H     1.1052600000     0.0000000000     0.0000000000     -4.228811837     -0.732422584     -0.000000000
       H     0.1129300000     1.2475300000     0.0000000000     -1.145079026     -5.481298645     -0.000000000
