       3
Lattice="15.0 0.0 0.0 0.0 15.0 0.0 0.0 0.0 15.0" Properties=species:S:1:pos:R:3:forces:R:3 energy=        0.9154001980 pbc="T T T"
       O     0.0000000000     0.0000000000     0.0000000000     -9.776865864     -2.320502020     -0.000000000
       H     0.8473700000     0.0000000000     0.0000000000      8.040179218      1.777403117     -0.000000000
       H    -0.7072000000     0.6460800000     0.0000000000      1.736686646      0.543098902     -0.000000000
