       3
Lattice="15.0 0.0 0.0 0.0 15.0 0.0 0.0 0.0 15.0" Properties=species:S:1:pos:R:3:forces:R:3 energy=        1.3758215131 pbc="T T T"
       O     0.0000000000     0.0000000000     0.0000000000      3.305427211      5.423169523     -0.000000000
       H     1.1052600000     0.0000000000     0.0000000000     -4.533072986      0.214807440     -0.000000000
       H    -0.2183200000     1.1960300000     0.0000000000      1.227645775     -5.637976963     -0.000000000
