       3
Lattice="15.0 0.0 0.0 0.0 15.0 0.0 0.0 0.0 15.0" Properties=species:S:1:pos:R:3:forces:R:3 energy=        1.2971137574 pbc="T T T"
       O     0.0000000000     0.0000000000     0.0000000000    -12.787580596     -3.708845212     -0.000000000
       H     0.8105300000     0.0000000000     0.0000000000     12.659292721      1.745493912     -0.000000000
       H    -0.6800000000     0.6212300000     0.0000000000      0.128287875      1.963351299     -0.000000000
