       3
Lattice="15.0 0.0 0.0 0.0 15.0 0.0 0.0 0.0 15.0" Properties=species:S:1:pos:R:3:forces:R:3 energy=        4.1264151051 pbc="T T T"
       O     0.0000000000     0.0000000000     0.0000000000    -40.480064342     -0.556853077     -0.000000000
       H     0.7000000000     0.0000000000     0.0000000000     36.255665292      2.139443924     -0.000000000
       H    -0.7981600000     0.6535300000     0.0000000000      4.224398999     -1.582590848     -0.000000000
