       3
Lattice="15.0 0.0 0.0 0.0 15.0 0.0 0.0 0.0 15.0" Properties=species:S:1:pos:R:3:forces:R:3 energy=        2.0137173790 pbc="T T T"
       O     0.0000000000     0.0000000000     0.0000000000      4.779194575     -4.677851410     -0.000000000
       H     1.2157900000     0.0000000000     0.0000000000     -4.244059463     -2.446412446     -0.000000000
       H     0.3567200000     0.8090600000     0.0000000000     -0.535135061      7.124263857     -0.000000000
