       3
Lattice="15.0 0.0 0.0 0.0 15.0 0.0 0.0 0.0 15.0" Properties=species:S:1:pos:R:3:forces:R:3 energy=        0.7338794748 pbc="T T T"
       O     0.0000000000     0.0000000000     0.0000000000      7.016951154     -8.868803427     -0.000000000
       H     1.0684200000     0.0000000000     0.0000000000     -4.323000132      0.574508593     -0.000000000
       H    -0.3278000000     0.7814000000     0.0000000000     -2.693951022      8.294294782     -0.000000000
