       3
Lattice="15.0 0.0 0.0 0.0 15.0 0.0 0.0 0.0 15.0" Properties=species:S:1:pos:R:3:forces:R:3 energy=        1.8518480684 pbc="T T T"
       O     0.0000000000     0.0000000000     0.0000000000      4.384881832      1.729605104     -0.000000000
       H     1.3263200000     0.0000000000     0.0000000000     -6.110265543      0.643052693     -0.000000000
       H    -0.3469800000     0.9714700000     0.0000000000      1.725383660     -2.372657798     -0.000000000
