       3
Lattice="15.0 0.0 0.0 0.0 15.0 0.0 0.0 0.0 15.0" Properties=species:S:1:pos:R:3:forces:R:3 energy=        3.1364473910 pbc="T T T"
       O     0.0000000000     0.0000000000     0.0000000000    -14.523650125      0.965334713     -0.000000000
       H     0.8473700000     0.0000000000     0.0000000000      8.755215841      2.336896153     -0.000000000
       H    -1.0064100000     0.9194200000     0.0000000000      5.768434285     -3.302230866     -0.000000000
