       3
Lattice="15.0 0.0 0.0 0.0 15.0 0.0 0.0 0.0 15.0" Properties=species:S:1:pos:R:3:forces:R:3 energy=        3.6966919668 pbc="T T T"
       O     0.0000000000     0.0000000000     0.0000000000    -10.172237902    -24.036680006     -0.000000000
       H     0.8842100000     0.0000000000     0.0000000000      7.065826048     -4.790565644     -0.000000000
       H     0.2226300000     0.7024000000     0.0000000000      3.106411803     28.827245650     -0.000000000
