       3
Lattice="15.0 0.0 0.0 0.0 15.0 0.0 0.0 0.0 15.0" Properties=species:S:1:pos:R:3:forces:R:3 energy=        1.2740544180 pbc="T T T"
       O     0.0000000000     0.0000000000     0.0000000000     -2.967201002      2.210914918     -0.000000000
       H     0.9947400000     0.0000000000     0.0000000000     -1.882667833      1.666059591     -0.000000000
       H    -0.7303000000     0.9255200000     0.0000000000      4.849868886     -3.876974561     -0.000000000
