       3
Lattice="15.0 0.0 0.0 0.0 15.0 0.0 0.0 0.0 15.0" Properties=species:S:1:pos:R:3:forces:R:3 energy=        0.8365624453 pbc="T T T"
       O     0.0000000000     0.0000000000     0.0000000000      0.675103463      1.303323507     -0.000000000
       H     1.0684200000     0.0000000000     0.0000000000     -4.302584072      1.405054908     -0.000000000
       H    -0.6154500000     0.8733500000     0.0000000000      3.627480660     -2.708378363     -0.000000000
