       3
Lattice="15.0 0.0 0.0 0.0 15.0 0.0 0.0 0.0 15.0" Properties=species:S:1:pos:R:3:forces:R:3 energy=        1.7908865364 pbc="T T T"
       O     0.0000000000     0.0000000000     0.0000000000     -3.176069499      6.684606397     -0.000000000
       H     0.8842100000     0.0000000000     0.0000000000      5.924853847     -2.171369070     -0.000000000
       H     0.3132700000     1.2128300000     0.0000000000     -2.748784348     -4.513237327     -0.000000000
