       3
Lattice="15.0 0.0 0.0 0.0 15.0 0.0 0.0 0.0 15.0" Properties=species:S:1:pos:R:3:forces:R:3 energy=        2.8840691819 pbc="T T T"
       O     0.0000000000     0.0000000000     0.0000000000      1.797151050      2.116060398     -0.000000000
       H     1.3631600000     0.0000000000     0.0000000000     -5.954174259      1.231432600     -0.000000000
       H    -0.6579000000     0.9335900000     0.0000000000      4.157023209     -3.347492998     -0.000000000
