       3
Lattice="15.0 0.0 0.0 0.0 15.0 0.0 0.0 0.0 15.0" Properties=species:S:1:pos:R:3:forces:R:3 energy=        0.9383246723 pbc="T T T"
       O     0.0000000000     0.0000000000     0.0000000000      6.156328780     -1.976807380     -0.000000000
       H     1.1789500000     0.0000000000     0.0000000000     -5.202583526     -0.823604487     -0.000000000
       H     0.0332500000     0.9204500000     0.0000000000     -0.953745254      2.800411867     -0.000000000
