       3
Lattice="15.0 0.0 0.0 0.0 15.0 0.0 0.0 0.0 15.0" Properties=species:S:1:pos:R:3:forces:R:3 energy=        1.2525940442 pbc="T T T"
       O     0.0000000000     0.0000000000     0.0000000000      3.044211851    -11.901762634     -0.000000000
       H     0.8842100000     0.0000000000     0.0000000000      4.242999910      1.369654194     -0.000000000
       H    -0.5357900000     0.6081800000     0.0000000000     -7.287211762     10.532108440     -0.000000000
