       3
Lattice="15.0 0.0 0.0 0.0 15.0 0.0 0.0 0.0 15.0" Properties=species:S:1:pos:R:3:forces:R:3 energy=        1.9623502606 pbc="T T T"
       O     0.0000000000     0.0000000000     0.0000000000    -16.624606468     -5.513284520     -0.000000000
       H     0.7736800000     0.0000000000     0.0000000000     18.577755060      1.706502343     -0.000000000
       H    -0.6528100000     0.5963800000     0.0000000000     -1.953148592      3.806782228     -0.000000000
