       3
Lattice="15.0 0.0 0.0 0.0 15.0 0.0 0.0 0.0 15.0" Properties=species:S:1:pos:R:3:forces:R:3 energy=        0.9716582038 pbc="T T T"
       O     0.0000000000     0.0000000000     0.0000000000    -14.778160251      2.605914763     -0.000000000
       H     0.8105300000     0.0000000000     0.0000000000     13.405524347      0.370860106     -0.000000000
       H    -0.3469800000     0.9714700000     0.0000000000      1.372635904     -2.976774869     -0.000000000
