       3
Lattice="15.0 0.0 0.0 0.0 15.0 0.0 0.0 0.0 15.0" Properties=species:S:1:pos:R:3:forces:R:3 energy=        2.3462734607 pbc="T T T"
       O     0.0000000000     0.0000000000     0.0000000000      2.796109175     -7.894396572     -0.000000000
       H     1.1789500000     0.0000000000     0.0000000000     -3.583816623     -3.055328741     -0.000000000
       H     0.3833300000     0.7557100000     0.0000000000      0.787707448     10.949725313     -0.000000000
