       3
Lattice="15.0 0.0 0.0 0.0 15.0 0.0 0.0 0.0 15.0" Properties=species:S:1:pos:R:3:forces:R:3 energy=        0.8065437830 pbc="T T T"
       O     0.0000000000     0.0000000000     0.0000000000     -3.939436507      0.421227886     -0.000000000
       H     0.9578900000     0.0000000000     0.0000000000     -0.453354658      1.777401369     -0.000000000
       H    -0.7486400000     0.7622800000     0.0000000000      4.392791114     -2.198629256     -0.000000000
