       3
Lattice="15.0 0.0 0.0 0.0 15.0 0.0 0.0 0.0 15.0" Properties=species:S:1:pos:R:3:forces:R:3 energy=        3.5447176032 pbc="T T T"
       O     0.0000000000     0.0000000000     0.0000000000    -35.588819290     -0.900951637     -0.000000000
       H     0.7000000000     0.0000000000     0.0000000000     36.926110377     -1.227983155     -0.000000000
       H    -0.1653900000     0.9060800000     0.0000000000     -1.337291138      2.128934792     -0.000000000
