       3
Lattice="15.0 0.0 0.0 0.0 15.0 0.0 0.0 0.0 15.0" Properties=species:S:1:pos:R:3:forces:R:3 energy=        2.7486470418 pbc="T T T"
       O     0.0000000000     0.0000000000     0.0000000000    -24.847247091      0.635314235     -0.000000000
       H     0.7736800000     0.0000000000     0.0000000000     19.001396390      2.213369963     -0.000000000
       H    -0.8836800000     0.7235500000     0.0000000000      5.845850700     -2.848684197     -0.000000000
