       3
Lattice="15.0 0.0 0.0 0.0 15.0 0.0 0.0 0.0 15.0" Properties=species:S:1:pos:R:3:forces:R:3 energy=        1.7852250061 pbc="T T T"
       O     0.0000000000     0.0000000000     0.0000000000     -7.058390877      6.760483749     -0.000000000
       H     0.8473700000     0.0000000000     0.0000000000      9.508932466     -2.138423967     -0.000000000
       H     0.2398800000     1.1918900000     0.0000000000     -2.450541588     -4.622059834     -0.000000000
