       3
Lattice="15.0 0.0 0.0 0.0 15.0 0.0 0.0 0.0 15.0" Properties=species:S:1:pos:R:3:forces:R:3 energy=        5.4555912522 pbc="T T T"
       O     0.0000000000     0.0000000000     0.0000000000     16.138728214    -36.150078468     -0.000000000
       H     1.3631600000     0.0000000000     0.0000000000     -6.263091627      0.372841913     -0.000000000
       H    -0.1994200000     0.6709900000     0.0000000000     -9.875636536     35.777236606     -0.000000000
