       3
Lattice="15.0 0.0 0.0 0.0 15.0 0.0 0.0 0.0 15.0" Properties=species:S:1:pos:R:3:forces:R:3 energy=        2.3637072325 pbc="T T T"
       O     0.0000000000     0.0000000000     0.0000000000     -7.304444383      6.758839065     -0.000000000
       H     0.8473700000     0.0000000000     0.0000000000      9.452196522     -1.748214347     -0.000000000
       H     0.2616900000     1.3002500000     0.0000000000     -2.147752191     -5.010624719     -0.000000000
