       3
Lattice="15.0 0.0 0.0 0.0 15.0 0.0 0.0 0.0 15.0" Properties=species:S:1:pos:R:3:forces:R:3 energy=        3.1990667059 pbc="T T T"
       O     0.0000000000     0.0000000000     0.0000000000      1.626041329      3.099230657     -0.000000000
       H     1.2157900000     0.0000000000     0.0000000000     -5.707218090      1.274147180     -0.000000000
       H    -0.7237600000     1.1551500000     0.0000000000      4.081176761     -4.373377837     -0.000000000
