       3
Lattice="15.0 0.0 0.0 0.0 15.0 0.0 0.0 0.0 15.0" Properties=species:S:1:pos:R:3:forces:R:3 energy=        1.7473378125 pbc="T T T"
       O     0.0000000000     0.0000000000     0.0000000000      1.743671462      6.481815013     -0.000000000
       H     0.9578900000     0.0000000000     0.0000000000      0.825656897     -1.758746413     -0.000000000
       H     0.3224800000     1.2484900000     0.0000000000     -2.569328359     -4.723068600     -0.000000000
