       3
Lattice="15.0 0.0 0.0 0.0 15.0 0.0 0.0 0.0 15.0" Properties=species:S:1:pos:R:3:forces:R:3 energy=        2.4060539097 pbc="T T T"
       O     0.0000000000     0.0000000000     0.0000000000      1.373109450      2.647996954     -0.000000000
       H     1.2157900000     0.0000000000     0.0000000000     -5.895876884      1.377919729     -0.000000000
       H    -0.7003400000     0.9938100000     0.0000000000      4.522767434     -4.025916683     -0.000000000
