       3
Lattice="15.0 0.0 0.0 0.0 15.0 0.0 0.0 0.0 15.0" Properties=species:S:1:pos:R:3:forces:R:3 energy=        0.3532053713 pbc="T T T"
       O     0.0000000000     0.0000000000     0.0000000000     -1.143675254      2.665255955     -0.000000000
       H     0.9210500000     0.0000000000     0.0000000000      2.954415568     -1.870240914     -0.000000000
       H     0.0896800000     0.9906900000     0.0000000000     -1.810740314     -0.795015040     -0.000000000
