       3
Lattice="15.0 0.0 0.0 0.0 15.0 0.0 0.0 0.0 15.0" Properties=species:S:1:pos:R:3:forces:R:3 energy=        1.3867713531 pbc="T T T"
       O     0.0000000000     0.0000000000     0.0000000000      1.545468677      0.531937018     -0.000000000
       H     1.1421100000     0.0000000000     0.0000000000     -5.628142283      1.567506384     -0.000000000
       H    -0.7062700000     0.8016900000     0.0000000000      4.082673606     -2.099443402     -0.000000000
