       3
Lattice="15.0 0.0 0.0 0.0 15.0 0.0 0.0 0.0 15.0" Properties=species:S:1:pos:R:3:forces:R:3 energy=        2.9293900881 pbc="T T T"
       O     0.0000000000     0.0000000000     0.0000000000      8.443845845      4.768059842     -0.000000000
       H     1.3263200000     0.0000000000     0.0000000000     -4.871885201     -1.529251899     -0.000000000
       H     0.5333300000     1.0514200000     0.0000000000     -3.571960592     -3.238807943     -0.000000000
