       3
Lattice="15.0 0.0 0.0 0.0 15.0 0.0 0.0 0.0 15.0" Properties=species:S:1:pos:R:3:forces:R:3 energy=        2.4054105537 pbc="T T T"
       O     0.0000000000     0.0000000000     0.0000000000      4.062248753      5.148228991     -0.000000000
       H     1.2526300000     0.0000000000     0.0000000000     -5.861585294      0.448404151     -0.000000000
       H    -0.2913200000     1.2182800000     0.0000000000      1.799336540     -5.596633193     -0.000000000
