       3
Lattice="15.0 0.0 0.0 0.0 15.0 0.0 0.0 0.0 15.0" Properties=species:S:1:pos:R:3:forces:R:3 energy=        2.6002069692 pbc="T T T"
       O     0.0000000000     0.0000000000     0.0000000000    -17.853067952      3.308511662     -0.000000000
       H     0.8105300000     0.0000000000     0.0000000000     13.487195117      1.675758157     -0.000000000
       H    -0.6846300000     1.0927100000     0.0000000000      4.365872834     -4.984269819     -0.000000000
