       3
Lattice="15.0 0.0 0.0 0.0 15.0 0.0 0.0 0.0 15.0" Properties=species:S:1:pos:R:3:forces:R:3 energy=        2.9341075955 pbc="T T T"
       O     0.0000000000     0.0000000000     0.0000000000    -21.328210986      5.680515577     -0.000000000
       H     0.7736800000     0.0000000000     0.0000000000     19.684845144      0.332937551     -0.000000000
       H    -0.2998900000     1.2541100000     0.0000000000      1.643365841     -6.013453127     -0.000000000
