       3
Lattice="15.0 0.0 0.0 0.0 15.0 0.0 0.0 0.0 15.0" Properties=species:S:1:pos:R:3:forces:R:3 energy=        2.3190980944 pbc="T T T"
       O     0.0000000000     0.0000000000     0.0000000000      6.713290923     -5.734482595     -0.000000000
       H     1.4000000000     0.0000000000     0.0000000000     -5.948235111      0.324676746     -0.000000000
       H    -0.2056400000     0.8599700000     0.0000000000     -0.765055812      5.409805848     -0.000000000
