       3
Lattice="15.0 0.0 0.0 0.0 15.0 0.0 0.0 0.0 15.0" Properties=species:S:1:pos:R:3:forces:R:3 energy=        3.9703886396 pbc="T T T"
       O     0.0000000000     0.0000000000     0.0000000000      4.343522995    -35.827055199     -0.000000000
       H     1.0684200000     0.0000000000     0.0000000000     -3.385953120     -1.510049452     -0.000000000
       H     0.0252700000     0.6995400000     0.0000000000     -0.957569875     37.337104702     -0.000000000
