       3
Lattice="15.0 0.0 0.0 0.0 15.0 0.0 0.0 0.0 15.0" Properties=species:S:1:pos:R:3:forces:R:3 energy=        2.0935205454 pbc="T T T"
       O     0.0000000000     0.0000000000     0.0000000000      2.671804095      1.090100227     -0.000000000
       H     1.2894700000     0.0000000000     0.0000000000     -6.220829356      1.274929670     -0.000000000
       H    -0.6154500000     0.8733500000     0.0000000000      3.549025261     -2.365029897     -0.000000000
