       3
Lattice="15.0 0.0 0.0 0.0 15.0 0.0 0.0 0.0 15.0" Properties=species:S:1:pos:R:3:forces:R:3 energy=        1.6315851262 pbc="T T T"
       O     0.0000000000     0.0000000000     0.0000000000      3.995112590    -17.660528641     -0.000000000
       H     0.8842100000     0.0000000000     0.0000000000      4.541678986      0.666057135     -0.000000000
       H    -0.3746800000     0.6769000000     0.0000000000     -8.536791576     16.994471505     -0.000000000
