       3
Lattice="15.0 0.0 0.0 0.0 15.0 0.0 0.0 0.0 15.0" Properties=species:S:1:pos:R:3:forces:R:3 energy=        3.5192185644 pbc="T T T"
       O     0.0000000000     0.0000000000     0.0000000000    -38.061329371      1.070641955     -0.000000000
       H     0.7000000000     0.0000000000     0.0000000000     36.613236902      0.733426652     -0.000000000
       H    -0.4339100000     0.8951100000     0.0000000000      1.448092470     -1.804068607     -0.000000000
