       3
Lattice="15.0 0.0 0.0 0.0 15.0 0.0 0.0 0.0 15.0" Properties=species:S:1:pos:R:3:forces:R:3 energy=        1.3608503800 pbc="T T T"
       O     0.0000000000     0.0000000000     0.0000000000     -9.043651328     -8.335877253     -0.000000000
       H     0.8105300000     0.0000000000     0.0000000000     12.813672061      1.122370055     -0.000000000
       H    -0.4881200000     0.6926600000     0.0000000000     -3.770020732      7.213507198     -0.000000000
