       3
Lattice="15.0 0.0 0.0 0.0 15.0 0.0 0.0 0.0 15.0" Properties=species:S:1:pos:R:3:forces:R:3 energy=        4.0281840262 pbc="T T T"
       O     0.0000000000     0.0000000000     0.0000000000    -34.997630040     -2.749787439     -0.000000000
       H     0.7000000000     0.0000000000     0.0000000000     37.356993583     -3.251972203     -0.000000000
       H     0.0319200000     0.8836300000     0.0000000000     -2.359363542      6.001759642     -0.000000000
