       3
Lattice="15.0 0.0 0.0 0.0 15.0 0.0 0.0 0.0 15.0" Properties=species:S:1:pos:R:3:forces:R:3 energy=        2.5244149135 pbc="T T T"
       O     0.0000000000     0.0000000000     0.0000000000      5.527893278      5.996636099     -0.000000000
       H     1.1052600000     0.0000000000     0.0000000000     -4.193786196     -0.708068004     -0.000000000
       H     0.2015100000     1.3854200000     0.0000000000     -1.334107082     -5.288568095     -0.000000000
