       3
Lattice="15.0 0.0 0.0 0.0 15.0 0.0 0.0 0.0 15.0" Properties=species:S:1:pos:R:3:forces:R:3 energy=        0.4492404941 pbc="T T T"
       O     0.0000000000     0.0000000000     0.0000000000      4.320745170     -0.771167893     -0.000000000
       H     1.1052600000     0.0000000000     0.0000000000     -4.888509448      0.532860250     -0.000000000
       H    -0.3221900000     0.9020800000     0.0000000000      0.567764278      0.238307643     -0.000000000
