       3
Lattice="15.0 0.0 0.0 0.0 15.0 0.0 0.0 0.0 15.0" Properties=species:S:1:pos:R:3:forces:R:3 energy=        3.1353117265 pbc="T T T"
       O     0.0000000000     0.0000000000     0.0000000000      0.285105085    -12.002459680     -0.000000000
       H     1.2157900000     0.0000000000     0.0000000000     -3.544200069     -3.178882339     -0.000000000
       H     0.4052700000     0.7019400000     0.0000000000      3.259094933     15.181342018     -0.000000000
