       3
Lattice="15.0 0.0 0.0 0.0 15.0 0.0 0.0 0.0 15.0" Properties=species:S:1:pos:R:3:forces:R:3 energy=        2.6034114691 pbc="T T T"
       O     0.0000000000     0.0000000000     0.0000000000      2.446652382      3.905249252     -0.000000000
       H     1.2526300000     0.0000000000     0.0000000000     -5.932234460      0.997787810     -0.000000000
       H    -0.5464000000     1.1271800000     0.0000000000      3.485582026     -4.903037062     -0.000000000
