       3
Lattice="15.0 0.0 0.0 0.0 15.0 0.0 0.0 0.0 15.0" Properties=species:S:1:pos:R:3:forces:R:3 energy=        1.3585824906 pbc="T T T"
       O     0.0000000000     0.0000000000     0.0000000000     -5.918943855    -12.083780009     -0.000000000
       H     0.8473700000     0.0000000000     0.0000000000      9.030694351     -1.334820461     -0.000000000
       H    -0.1021700000     0.8040700000     0.0000000000     -3.111750495     13.418600469     -0.000000000
