       3
Lattice="15.0 0.0 0.0 0.0 15.0 0.0 0.0 0.0 15.0" Properties=species:S:1:pos:R:3:forces:R:3 energy=        4.2193660976 pbc="T T T"
       O     0.0000000000     0.0000000000     0.0000000000    -41.134495303      0.274965215     -0.000000000
       H     0.7000000000     0.0000000000     0.0000000000     36.364975537      2.162911114     -0.000000000
       H    -0.7888100000     0.7206300000     0.0000000000      4.769519715     -2.437876328     -0.000000000
