       3
Lattice="15.0 0.0 0.0 0.0 15.0 0.0 0.0 0.0 15.0" Properties=species:S:1:pos:R:3:forces:R:3 energy=        3.6616939719 pbc="T T T"
       O     0.0000000000     0.0000000000     0.0000000000     -9.453515190    -16.006041590     -0.000000000
       H     0.9210500000     0.0000000000     0.0000000000      5.483035632     -6.610577720     -0.000000000
       H     0.3868400000     0.6700300000     0.0000000000      3.970479559     22.616619310     -0.000000000
