       3
Lattice="15.0 0.0 0.0 0.0 15.0 0.0 0.0 0.0 15.0" Properties=species:S:1:pos:R:3:forces:R:3 energy=        1.8663144439 pbc="T T T"
       O     0.0000000000     0.0000000000     0.0000000000     13.667889145    -17.977903914     -0.000000000
       H     1.0684200000     0.0000000000     0.0000000000     -4.652999630      0.996904738     -0.000000000
       H    -0.4107800000     0.6556200000     0.0000000000     -9.014889515     16.980999176     -0.000000000
