       3
Lattice="15.0 0.0 0.0 0.0 15.0 0.0 0.0 0.0 15.0" Properties=species:S:1:pos:R:3:forces:R:3 energy=        1.8212482988 pbc="T T T"
       O     0.0000000000     0.0000000000     0.0000000000      4.648888537      0.250574690     -0.000000000
       H     1.3263200000     0.0000000000     0.0000000000     -6.173648459      0.761031263     -0.000000000
       H    -0.3848100000     0.9172900000     0.0000000000      1.524759922     -1.011605901     -0.000000000
