       3
Lattice="15.0 0.0 0.0 0.0 15.0 0.0 0.0 0.0 15.0" Properties=species:S:1:pos:R:3:forces:R:3 energy=        1.9187332633 pbc="T T T"
       O     0.0000000000     0.0000000000     0.0000000000     -0.133148445      6.501770177     -0.000000000
       H     0.9210500000     0.0000000000     0.0000000000      3.139798159     -2.187758266     -0.000000000
       H     0.3896000000     1.2292000000     0.0000000000     -3.006649713     -4.314011911     -0.000000000
