       3
Lattice="15.0 0.0 0.0 0.0 15.0 0.0 0.0 0.0 15.0" Properties=species:S:1:pos:R:3:forces:R:3 energy=        2.7618735659 pbc="T T T"
       O     0.0000000000     0.0000000000     0.0000000000    -18.512970583      2.432133304     -0.000000000
       H     0.8105300000     0.0000000000     0.0000000000     13.418218455      1.997542360     -0.000000000
       H    -0.7987600000     1.0122800000     0.0000000000      5.094752128     -4.429675612     -0.000000000
