       3
Lattice="15.0 0.0 0.0 0.0 15.0 0.0 0.0 0.0 15.0" Properties=species:S:1:pos:R:3:forces:R:3 energy=        2.0077641862 pbc="T T T"
       O     0.0000000000     0.0000000000     0.0000000000      2.324011577    -12.245742563     -0.000000000
       H     1.1052600000     0.0000000000     0.0000000000     -3.239346538     -2.663535886     -0.000000000
       H     0.2448900000     0.7726500000     0.0000000000      0.915334960     14.909278449     -0.000000000
