       3
Lattice="15.0 0.0 0.0 0.0 15.0 0.0 0.0 0.0 15.0" Properties=species:S:1:pos:R:3:forces:R:3 energy=        3.4502350016 pbc="T T T"
       O     0.0000000000     0.0000000000     0.0000000000    -22.286570910      4.760763407     -0.000000000
       H     0.7736800000     0.0000000000     0.0000000000     19.674895999      0.949389135     -0.000000000
       H    -0.4585100000     1.2837300000     0.0000000000      2.611674911     -5.710152594     -0.000000000
