       3
Lattice="15.0 0.0 0.0 0.0 15.0 0.0 0.0 0.0 15.0" Properties=species:S:1:pos:R:3:forces:R:3 energy=        1.7153278319 pbc="T T T"
       O     0.0000000000     0.0000000000     0.0000000000    -19.973847715      4.465416534     -0.000000000
       H     0.7736800000     0.0000000000     0.0000000000     19.611237717     -0.492588168     -0.000000000
       H    -0.1918600000     1.0510500000     0.0000000000      0.362609998     -3.972828366     -0.000000000
