       3
Lattice="15.0 0.0 0.0 0.0 15.0 0.0 0.0 0.0 15.0" Properties=species:S:1:pos:R:3:forces:R:3 energy=        2.1860292522 pbc="T T T"
       O     0.0000000000     0.0000000000     0.0000000000      2.461037968      0.742766189     -0.000000000
       H     1.2894700000     0.0000000000     0.0000000000     -6.240555897      1.372667323     -0.000000000
       H    -0.6618300000     0.8387500000     0.0000000000      3.779517981     -2.115433512     -0.000000000
