       3
Lattice="15.0 0.0 0.0 0.0 15.0 0.0 0.0 0.0 15.0" Properties=species:S:1:pos:R:3:forces:R:3 energy=        4.4478770912 pbc="T T T"
       O     0.0000000000     0.0000000000     0.0000000000     -1.902831102    -25.316018554     -0.000000000
       H     1.2894700000     0.0000000000     0.0000000000     -4.653404424     -2.012529738     -0.000000000
       H     0.2603300000     0.6893200000     0.0000000000      6.556235526     27.328548292     -0.000000000
