       3
Lattice="15.0 0.0 0.0 0.0 15.0 0.0 0.0 0.0 15.0" Properties=species:S:1:pos:R:3:forces:R:3 energy=        3.1786584222 pbc="T T T"
       O     0.0000000000     0.0000000000     0.0000000000    -29.973823835      4.469508909     -0.000000000
       H     0.7368400000     0.0000000000     0.0000000000     27.093678010      0.916009207     -0.000000000
       H    -0.4560800000     1.0871600000     0.0000000000      2.880145824     -5.385518116     -0.000000000
