       3
Lattice="15.0 0.0 0.0 0.0 15.0 0.0 0.0 0.0 15.0" Properties=species:S:1:pos:R:3:forces:R:3 energy=        4.2114934110 pbc="T T T"
       O     0.0000000000     0.0000000000     0.0000000000    -16.900513016      6.509230493     -0.000000000
       H     0.7736800000     0.0000000000     0.0000000000     20.271853881     -3.074845017     -0.000000000
       H     0.5648100000     1.2810100000     0.0000000000     -3.371340866     -3.434385476     -0.000000000
