       3
Lattice="15.0 0.0 0.0 0.0 15.0 0.0 0.0 0.0 15.0" Properties=species:S:1:pos:R:3:forces:R:3 energy=        1.5587944781 pbc="T T T"
       O     0.0000000000     0.0000000000     0.0000000000      4.398354830     -7.991570896     -0.000000000
       H     1.1421100000     0.0000000000     0.0000000000     -4.107451853     -2.077255337     -0.000000000
       H     0.2119200000     0.8204400000     0.0000000000     -0.290902977     10.068826233     -0.000000000
