       3
Lattice="15.0 0.0 0.0 0.0 15.0 0.0 0.0 0.0 15.0" Properties=species:S:1:pos:R:3:forces:R:3 energy=        3.0749407006 pbc="T T T"
       O     0.0000000000     0.0000000000     0.0000000000     13.818716452    -18.942993343     -0.000000000
       H     1.2894700000     0.0000000000     0.0000000000     -6.484446127      0.790949816     -0.000000000
       H    -0.3374800000     0.6961900000     0.0000000000     -7.334270274     18.152043527     -0.000000000
