       3
Lattice="15.0 0.0 0.0 0.0 15.0 0.0 0.0 0.0 15.0" Properties=species:S:1:pos:R:3:forces:R:3 energy=        4.4703030420 pbc="T T T"
       O     0.0000000000     0.0000000000     0.0000000000      8.249506504      4.762816486     -0.000000000
       H     1.4000000000     0.0000000000     0.0000000000     -4.921990986     -1.000630525     -0.000000000
       H     0.7000000000     1.2124400000     0.0000000000     -3.327515517     -3.762185960     -0.000000000
