       3
Lattice="15.0 0.0 0.0 0.0 15.0 0.0 0.0 0.0 15.0" Properties=species:S:1:pos:R:3:forces:R:3 energy=        2.2935808376 pbc="T T T"
       O     0.0000000000     0.0000000000     0.0000000000      3.218468810      5.705532679     -0.000000000
       H     1.0684200000     0.0000000000     0.0000000000     -3.620643271     -0.012652765     -0.000000000
       H    -0.1010200000     1.3963500000     0.0000000000      0.402174460     -5.692879966     -0.000000000
