       3
Lattice="15.0 0.0 0.0 0.0 15.0 0.0 0.0 0.0 15.0" Properties=species:S:1:pos:R:3:forces:R:3 energy=        1.4678857954 pbc="T T T"
       O     0.0000000000     0.0000000000     0.0000000000    -10.425543157     -5.503263384     -0.000000000
       H     0.8105300000     0.0000000000     0.0000000000     12.522037862      1.733231544     -0.000000000
       H    -0.6841400000     0.5601700000     0.0000000000     -2.096494705      3.770031839     -0.000000000
