       3
Lattice="15.0 0.0 0.0 0.0 15.0 0.0 0.0 0.0 15.0" Properties=species:S:1:pos:R:3:forces:R:3 energy=        2.3946172935 pbc="T T T"
       O     0.0000000000     0.0000000000     0.0000000000     -0.041826057      6.246030395     -0.000000000
       H     0.9210500000     0.0000000000     0.0000000000      3.163817673     -2.214566503     -0.000000000
       H     0.4816100000     1.2752500000     0.0000000000     -3.121991615     -4.031463943     -0.000000000
