       3
Lattice="15.0 0.0 0.0 0.0 15.0 0.0 0.0 0.0 15.0" Properties=species:S:1:pos:R:3:forces:R:3 energy=        2.8521877941 pbc="T T T"
       O     0.0000000000     0.0000000000     0.0000000000    -24.135675957     -5.394968673     -0.000000000
       H     0.7368400000     0.0000000000     0.0000000000     26.171037308      1.795074883     -0.000000000
       H    -0.6841400000     0.5601700000     0.0000000000     -2.035361351      3.599893790     -0.000000000
