       3
Lattice="15.0 0.0 0.0 0.0 15.0 0.0 0.0 0.0 15.0" Properties=species:S:1:pos:R:3:forces:R:3 energy=        3.8292921229 pbc="T T T"
       O     0.0000000000     0.0000000000     0.0000000000      0.041569975      0.504034057     -0.000000000
       H     1.1789500000     0.0000000000     0.0000000000     -5.469727904      1.886868040     -0.000000000
       H    -1.0832200000     0.8869300000     0.0000000000      5.428157928     -2.390902097     -0.000000000
