       3
Lattice="15.0 0.0 0.0 0.0 15.0 0.0 0.0 0.0 15.0" Properties=species:S:1:pos:R:3:forces:R:3 energy=        3.7167373431 pbc="T T T"
       O     0.0000000000     0.0000000000     0.0000000000      7.141364015      5.744616242     -0.000000000
       H     1.3263200000     0.0000000000     0.0000000000     -5.565804983     -0.548181513     -0.000000000
       H     0.2762200000     1.3724800000     0.0000000000     -1.575559031     -5.196434730     -0.000000000
