       3
Lattice="15.0 0.0 0.0 0.0 15.0 0.0 0.0 0.0 15.0" Properties=species:S:1:pos:R:3:forces:R:3 energy=        2.2185901327 pbc="T T T"
       O     0.0000000000     0.0000000000     0.0000000000      6.671343921      5.618488198     -0.000000000
       H     1.2894700000     0.0000000000     0.0000000000     -5.648675277     -0.510131379     -0.000000000
       H     0.1062900000     1.1741500000     0.0000000000     -1.022668644     -5.108356767     -0.000000000
