       3
Lattice="15.0 0.0 0.0 0.0 15.0 0.0 0.0 0.0 15.0" Properties=species:S:1:pos:R:3:forces:R:3 energy=        7.3205529501 pbc="T T T"
       O     0.0000000000     0.0000000000     0.0000000000    -40.527689628    -22.334871574     -0.000000000
       H     0.7000000000     0.0000000000     0.0000000000     38.473845893     -7.394248945     -0.000000000
       H     0.2226300000     0.7024000000     0.0000000000      2.053843735     29.729120519     -0.000000000
