       3
Lattice="15.0 0.0 0.0 0.0 15.0 0.0 0.0 0.0 15.0" Properties=species:S:1:pos:R:3:forces:R:3 energy=        2.0488076993 pbc="T T T"
       O     0.0000000000     0.0000000000     0.0000000000      6.875945105      5.948004791     -0.000000000
       H     1.2157900000     0.0000000000     0.0000000000     -5.347473536     -0.766772539     -0.000000000
       H     0.1750000000     1.2031300000     0.0000000000     -1.528471569     -5.181232304     -0.000000000
