       3
Lattice="15.0 0.0 0.0 0.0 15.0 0.0 0.0 0.0 15.0" Properties=species:S:1:pos:R:3:forces:R:3 energy=        1.7423947336 pbc="T T T"
       O     0.0000000000     0.0000000000     0.0000000000      6.465242086     -0.014961513     -0.000000000
       H     1.3263200000     0.0000000000     0.0000000000     -5.624835689     -0.647626842     -0.000000000
       H     0.0863600000     0.9539900000     0.0000000000     -0.840406397      0.662588356     -0.000000000
