       3
Lattice="15.0 0.0 0.0 0.0 15.0 0.0 0.0 0.0 15.0" Properties=species:S:1:pos:R:3:forces:R:3 energy=        1.9737475673 pbc="T T T"
       O     0.0000000000     0.0000000000     0.0000000000      5.296633135     -8.340927005     -0.000000000
       H     1.2526300000     0.0000000000     0.0000000000     -5.203780323     -1.355812705     -0.000000000
       H     0.1671900000     0.8307100000     0.0000000000     -0.092852812      9.696739710     -0.000000000
