       3
Lattice="15.0 0.0 0.0 0.0 15.0 0.0 0.0 0.0 15.0" Properties=species:S:1:pos:R:3:forces:R:3 energy=        3.7112781649 pbc="T T T"
       O     0.0000000000     0.0000000000     0.0000000000      1.248953802      2.759607412     -0.000000000
       H     1.4000000000     0.0000000000     0.0000000000     -5.672561299      1.196403617     -0.000000000
       H    -0.7215600000     1.0239300000     0.0000000000      4.423607497     -3.956011029     -0.000000000
