       3
Lattice="15.0 0.0 0.0 0.0 15.0 0.0 0.0 0.0 15.0" Properties=species:S:1:pos:R:3:forces:R:3 energy=        3.7947044077 pbc="T T T"
       O     0.0000000000     0.0000000000     0.0000000000    -25.072062606      1.460096339     -0.000000000
       H     0.7736800000     0.0000000000     0.0000000000     19.387968978      2.361557672     -0.000000000
       H    -0.9293500000     0.9462800000     0.0000000000      5.684093628     -3.821654062     -0.000000000
