       3
Lattice="15.0 0.0 0.0 0.0 15.0 0.0 0.0 0.0 15.0" Properties=species:S:1:pos:R:3:forces:R:3 energy=        4.4847132424 pbc="T T T"
       O     0.0000000000     0.0000000000     0.0000000000    -13.943513796    -23.641074306     -0.000000000
       H     0.7368400000     0.0000000000     0.0000000000     26.428832122      0.354007391     -0.000000000
       H    -0.3568400000     0.6446700000     0.0000000000    -12.485318326     23.287066915     -0.000000000
