       3
Lattice="15.0 0.0 0.0 0.0 15.0 0.0 0.0 0.0 15.0" Properties=species:S:1:pos:R:3:forces:R:3 energy=        1.6646646040 pbc="T T T"
       O     0.0000000000     0.0000000000     0.0000000000    -11.352979277      4.429594879     -0.000000000
       H     0.8105300000     0.0000000000     0.0000000000     14.473538633     -3.572634581     -0.000000000
       H     0.2579900000     0.9988000000     0.0000000000     -3.120559356     -0.856960298     -0.000000000
