       3
Lattice="15.0 0.0 0.0 0.0 15.0 0.0 0.0 0.0 15.0" Properties=species:S:1:pos:R:3:forces:R:3 energy=        3.3317801838 pbc="T T T"
       O     0.0000000000     0.0000000000     0.0000000000      2.095768677      3.490580048     -0.000000000
       H     1.2526300000     0.0000000000     0.0000000000     -5.827434291      1.122021927     -0.000000000
       H    -0.6601600000     1.1926400000     0.0000000000      3.731665563     -4.612601975     -0.000000000
