       3
Lattice="15.0 0.0 0.0 0.0 15.0 0.0 0.0 0.0 15.0" Properties=species:S:1:pos:R:3:forces:R:3 energy=        2.1582473958 pbc="T T T"
       O     0.0000000000     0.0000000000     0.0000000000      5.813646384      5.755260049     -0.000000000
       H     1.2526300000     0.0000000000     0.0000000000     -5.712480832     -0.195596817     -0.000000000
       H    -0.0219500000     1.2155900000     0.0000000000     -0.101165552     -5.559663232     -0.000000000
