       3
Lattice="15.0 0.0 0.0 0.0 15.0 0.0 0.0 0.0 15.0" Properties=species:S:1:pos:R:3:forces:R:3 energy=        1.6273573775 pbc="T T T"
       O     0.0000000000     0.0000000000     0.0000000000      6.271512868     -2.000598271     -0.000000000
       H     1.2526300000     0.0000000000     0.0000000000     -5.089099761     -1.482231234     -0.000000000
       H     0.2303400000     0.8917800000     0.0000000000     -1.182413107      3.482829454     -0.000000000
