       3
Lattice="15.0 0.0 0.0 0.0 15.0 0.0 0.0 0.0 15.0" Properties=species:S:1:pos:R:3:forces:R:3 energy=        3.1707405483 pbc="T T T"
       O     0.0000000000     0.0000000000     0.0000000000    -31.260497127      2.546242824     -0.000000000
       H     0.7368400000     0.0000000000     0.0000000000     26.871730973      1.736621237     -0.000000000
       H    -0.6579000000     0.9335900000     0.0000000000      4.388766205     -4.282864061     -0.000000000
