       3
Lattice="15.0 0.0 0.0 0.0 15.0 0.0 0.0 0.0 15.0" Properties=species:S:1:pos:R:3:forces:R:3 energy=        2.8473030293 pbc="T T T"
       O     0.0000000000     0.0000000000     0.0000000000      1.546706766      2.630576745     -0.000000000
       H     1.2894700000     0.0000000000     0.0000000000     -6.022504906      1.309569696     -0.000000000
       H    -0.7003400000     0.9938100000     0.0000000000      4.475798191     -3.940146441     -0.000000000
