       3
Lattice="15.0 0.0 0.0 0.0 15.0 0.0 0.0 0.0 15.0" Properties=species:S:1:pos:R:3:forces:R:3 energy=        1.8037121578 pbc="T T T"
       O     0.0000000000     0.0000000000     0.0000000000      7.526294335     -6.074160964     -0.000000000
       H     1.2894700000     0.0000000000     0.0000000000     -6.362959440      0.846001583     -0.000000000
       H    -0.3857000000     0.7956500000     0.0000000000     -1.163334895      5.228159381     -0.000000000
