       3
Lattice="15.0 0.0 0.0 0.0 15.0 0.0 0.0 0.0 15.0" Properties=species:S:1:pos:R:3:forces:R:3 energy=        1.4887415785 pbc="T T T"
       O     0.0000000000     0.0000000000     0.0000000000    -20.451802288      1.240119128     -0.000000000
       H     0.7736800000     0.0000000000     0.0000000000     19.279749909      0.516104312     -0.000000000
       H    -0.3848100000     0.9172900000     0.0000000000      1.172052379     -1.756223439     -0.000000000
