       3
Lattice="15.0 0.0 0.0 0.0 15.0 0.0 0.0 0.0 15.0" Properties=species:S:1:pos:R:3:forces:R:3 energy=        3.0973018965 pbc="T T T"
       O     0.0000000000     0.0000000000     0.0000000000      8.530016408      5.167135813     -0.000000000
       H     1.2894700000     0.0000000000     0.0000000000     -4.941260797     -1.495635995     -0.000000000
       H     0.5666700000     1.1171300000     0.0000000000     -3.588755611     -3.671499818     -0.000000000
