       3
Lattice="15.0 0.0 0.0 0.0 15.0 0.0 0.0 0.0 15.0" Properties=species:S:1:pos:R:3:forces:R:3 energy=        2.0819097300 pbc="T T T"
       O     0.0000000000     0.0000000000     0.0000000000     -3.665843183      3.924876446     -0.000000000
       H     0.9578900000     0.0000000000     0.0000000000      0.209648108      1.227494285     -0.000000000
       H    -0.5946200000     1.2266400000     0.0000000000      3.456195126     -5.152370732     -0.000000000
