       3
Lattice="15.0 0.0 0.0 0.0 15.0 0.0 0.0 0.0 15.0" Properties=species:S:1:pos:R:3:forces:R:3 energy=        2.0095941628 pbc="T T T"
       O     0.0000000000     0.0000000000     0.0000000000      6.220683317     -2.273337115     -0.000000000
       H     1.3631600000     0.0000000000     0.0000000000     -5.582041868     -0.605102421     -0.000000000
       H     0.0830400000     0.9173000000     0.0000000000     -0.638641398      2.878439485     -0.000000000
