       3
Lattice="15.0 0.0 0.0 0.0 15.0 0.0 0.0 0.0 15.0" Properties=species:S:1:pos:R:3:forces:R:3 energy=        3.9438750624 pbc="T T T"
       O     0.0000000000     0.0000000000     0.0000000000    -23.600746636    -17.088610435     -0.000000000
       H     0.7368400000     0.0000000000     0.0000000000     27.411563185     -2.506210112     -0.000000000
       H    -0.0558300000     0.7716600000     0.0000000000     -3.810816548     19.594820599     -0.000000000
