       3
Lattice="15.0 0.0 0.0 0.0 15.0 0.0 0.0 0.0 15.0" Properties=species:S:1:pos:R:3:forces:R:3 energy=        3.6073097802 pbc="T T T"
       O     0.0000000000     0.0000000000     0.0000000000    -34.882304336     -3.996328517     -0.000000000
       H     0.7000000000     0.0000000000     0.0000000000     36.726635152     -0.584693920     -0.000000000
       H    -0.2518900000     0.8475700000     0.0000000000     -1.844330816      4.581022437     -0.000000000
