       3
Lattice="15.0 0.0 0.0 0.0 15.0 0.0 0.0 0.0 15.0" Properties=species:S:1:pos:R:3:forces:R:3 energy=        0.8053593966 pbc="T T T"
       O     0.0000000000     0.0000000000     0.0000000000      3.479338357      3.575843937     -0.000000000
       H     0.9947400000     0.0000000000     0.0000000000     -0.450227476     -2.729215210     -0.000000000
       H     0.3116800000     0.9833700000     0.0000000000     -3.029110881     -0.846628727     -0.000000000
