       3
Lattice="15.0 0.0 0.0 0.0 15.0 0.0 0.0 0.0 15.0" Properties=species:S:1:pos:R:3:forces:R:3 energy=        2.9409867591 pbc="T T T"
       O     0.0000000000     0.0000000000     0.0000000000      9.325258425    -26.574301968     -0.000000000
       H     1.1421100000     0.0000000000     0.0000000000     -5.190322598     -0.448790280     -0.000000000
       H    -0.0928800000     0.7309600000     0.0000000000     -4.134935828     27.023092248     -0.000000000
