       3
Lattice="15.0 0.0 0.0 0.0 15.0 0.0 0.0 0.0 15.0" Properties=species:S:1:pos:R:3:forces:R:3 energy=        2.4347485231 pbc="T T T"
       O     0.0000000000     0.0000000000     0.0000000000     12.818405721    -13.158847297     -0.000000000
       H     1.2526300000     0.0000000000     0.0000000000     -6.575886683      1.167693946     -0.000000000
       H    -0.4669000000     0.6625500000     0.0000000000     -6.242519038     11.991153351     -0.000000000
