       3
Lattice="15.0 0.0 0.0 0.0 15.0 0.0 0.0 0.0 15.0" Properties=species:S:1:pos:R:3:forces:R:3 energy=        3.4723569686 pbc="T T T"
       O     0.0000000000     0.0000000000     0.0000000000     12.143086645    -33.998062564     -0.000000000
       H     0.9210500000     0.0000000000     0.0000000000      1.810156725      0.167402292     -0.000000000
       H    -0.2707900000     0.6455000000     0.0000000000    -13.953243369     33.830660272     -0.000000000
