       3
Lattice="15.0 0.0 0.0 0.0 15.0 0.0 0.0 0.0 15.0" Properties=species:S:1:pos:R:3:forces:R:3 energy=        2.3975996423 pbc="T T T"
       O     0.0000000000     0.0000000000     0.0000000000     -6.415299463    -17.273442964     -0.000000000
       H     0.8842100000     0.0000000000     0.0000000000      6.469738690     -3.660781861     -0.000000000
       H     0.1526500000     0.7584700000     0.0000000000     -0.054439176     20.934224773     -0.000000000
