       3
Lattice="15.0 0.0 0.0 0.0 15.0 0.0 0.0 0.0 15.0" Properties=species:S:1:pos:R:3:forces:R:3 energy=        1.8964802299 pbc="T T T"
       O     0.0000000000     0.0000000000     0.0000000000    -15.272651705     -8.207392071     -0.000000000
       H     0.7736800000     0.0000000000     0.0000000000     18.875862939      0.903208450     -0.000000000
       H    -0.4499000000     0.7180700000     0.0000000000     -3.603211234      7.304183622     -0.000000000
