       3
Lattice="15.0 0.0 0.0 0.0 15.0 0.0 0.0 0.0 15.0" Properties=species:S:1:pos:R:3:forces:R:3 energy=        1.0272336120 pbc="T T T"
       O     0.0000000000     0.0000000000     0.0000000000      5.732289031      5.062606536     -0.000000000
       H     1.0684200000     0.0000000000     0.0000000000     -3.065006069     -1.837112080     -0.000000000
       H     0.2764100000     1.0701400000     0.0000000000     -2.667282962     -3.225494507     -0.000000000
