       3
Lattice="15.0 0.0 0.0 0.0 15.0 0.0 0.0 0.0 15.0" Properties=species:S:1:pos:R:3:forces:R:3 energy=        2.7656446803 pbc="T T T"
       O     0.0000000000     0.0000000000     0.0000000000      6.376388267    -23.177447263     -0.000000000
       H     0.8473700000     0.0000000000     0.0000000000      7.955614207      0.947743423     -0.000000000
       H    -0.4244500000     0.6023100000     0.0000000000    -14.332002525     22.229703789     -0.000000000
