       3
Lattice="15.0 0.0 0.0 0.0 15.0 0.0 0.0 0.0 15.0" Properties=species:S:1:pos:R:3:forces:R:3 energy=        3.9808776602 pbc="T T T"
       O     0.0000000000     0.0000000000     0.0000000000    -25.622105856      0.189552510     -0.000000000
       H     0.7368400000     0.0000000000     0.0000000000     28.659341272     -6.815027518     -0.000000000
       H     0.3715800000     0.8427700000     0.0000000000     -3.037235417      6.625475007     -0.000000000
