       3
Lattice="15.0 0.0 0.0 0.0 15.0 0.0 0.0 0.0 15.0" Properties=species:S:1:pos:R:3:forces:R:3 energy=        2.5135541310 pbc="T T T"
       O     0.0000000000     0.0000000000     0.0000000000    -25.804638840      1.620068808     -0.000000000
       H     0.7368400000     0.0000000000     0.0000000000     27.483540995     -2.169315529     -0.000000000
       H    -0.0172900000     0.9577300000     0.0000000000     -1.678902103      0.549246721     -0.000000000
