       3
Lattice="15.0 0.0 0.0 0.0 15.0 0.0 0.0 0.0 15.0" Properties=species:S:1:pos:R:3:forces:R:3 energy=        2.3806411963 pbc="T T T"
       O     0.0000000000     0.0000000000     0.0000000000      6.859854671     -4.570828317     -0.000000000
       H     1.2894700000     0.0000000000     0.0000000000     -6.644479737      1.564191716     -0.000000000
       H    -0.7126400000     0.5835000000     0.0000000000     -0.215374934      3.006636652     -0.000000000
