       3
Lattice="15.0 0.0 0.0 0.0 15.0 0.0 0.0 0.0 15.0" Properties=species:S:1:pos:R:3:forces:R:3 energy=        4.5383559238 pbc="T T T"
       O     0.0000000000     0.0000000000     0.0000000000    -31.484124483      3.076795097     -0.000000000
       H     0.7368400000     0.0000000000     0.0000000000     27.198206310      1.864998741     -0.000000000
       H    -0.7237600000     1.1551500000     0.0000000000      4.285918173     -4.941793838     -0.000000000
