       3
Lattice="15.0 0.0 0.0 0.0 15.0 0.0 0.0 0.0 15.0" Properties=species:S:1:pos:R:3:forces:R:3 energy=        1.6870862337 pbc="T T T"
       O     0.0000000000     0.0000000000     0.0000000000      1.807132900      2.577126621     -0.000000000
       H     1.1789500000     0.0000000000     0.0000000000     -5.757376479      1.266100806     -0.000000000
       H    -0.6063900000     0.9678300000     0.0000000000      3.950243579     -3.843227427     -0.000000000
