       3
Lattice="15.0 0.0 0.0 0.0 15.0 0.0 0.0 0.0 15.0" Properties=species:S:1:pos:R:3:forces:R:3 energy=        3.5653220429 pbc="T T T"
       O     0.0000000000     0.0000000000     0.0000000000      8.305287282      5.414793996     -0.000000000
       H     1.3263200000     0.0000000000     0.0000000000     -5.182323223     -1.128165941     -0.000000000
       H     0.5350800000     1.2135900000     0.0000000000     -3.122964058     -4.286628106     -0.000000000
