       3
Lattice="15.0 0.0 0.0 0.0 15.0 0.0 0.0 0.0 15.0" Properties=species:S:1:pos:R:3:forces:R:3 energy=        2.4676376845 pbc="T T T"
       O     0.0000000000     0.0000000000     0.0000000000      2.027113865    -25.440750592     -0.000000000
       H     0.8842100000     0.0000000000     0.0000000000      5.076959469     -0.692777132     -0.000000000
       H    -0.1713700000     0.7166400000     0.0000000000     -7.104073283     26.133527724     -0.000000000
