       3
Lattice="15.0 0.0 0.0 0.0 15.0 0.0 0.0 0.0 15.0" Properties=species:S:1:pos:R:3:forces:R:3 energy=        2.2044320268 pbc="T T T"
       O     0.0000000000     0.0000000000     0.0000000000      6.001781650     -3.117400548     -0.000000000
       H     1.4000000000     0.0000000000     0.0000000000     -5.961945987      0.470891081     -0.000000000
       H    -0.2623900000     0.8828800000     0.0000000000     -0.039835611      2.646509467     -0.000000000
