       3
Lattice="15.0 0.0 0.0 0.0 15.0 0.0 0.0 0.0 15.0" Properties=species:S:1:pos:R:3:forces:R:3 energy=        1.2977379322 pbc="T T T"
       O     0.0000000000     0.0000000000     0.0000000000      4.969352940     -1.895824123     -0.000000000
       H     1.2157900000     0.0000000000     0.0000000000     -6.224580443      1.150033955     -0.000000000
       H    -0.5085800000     0.8117300000     0.0000000000      1.255227503      0.745790167     -0.000000000
