       3
Lattice="15.0 0.0 0.0 0.0 15.0 0.0 0.0 0.0 15.0" Properties=species:S:1:pos:R:3:forces:R:3 energy=        3.9116464601 pbc="T T T"
       O     0.0000000000     0.0000000000     0.0000000000      3.870408217      5.033725320     -0.000000000
       H     1.4000000000     0.0000000000     0.0000000000     -5.658828105      0.451482740     -0.000000000
       H    -0.3170300000     1.3257800000     0.0000000000      1.788419888     -5.485208009     -0.000000000
