       3
Lattice="15.0 0.0 0.0 0.0 15.0 0.0 0.0 0.0 15.0" Properties=species:S:1:pos:R:3:forces:R:3 energy=        2.0072818127 pbc="T T T"
       O     0.0000000000     0.0000000000     0.0000000000    -12.009498952      4.540263131     -0.000000000
       H     0.8473700000     0.0000000000     0.0000000000      8.912035261      1.053567559     -0.000000000
       H    -0.4988300000     1.1890800000     0.0000000000      3.097463691     -5.593830741     -0.000000000
