       3
Lattice="15.0 0.0 0.0 0.0 15.0 0.0 0.0 0.0 15.0" Properties=species:S:1:pos:R:3:forces:R:3 energy=        4.2099496737 pbc="T T T"
       O     0.0000000000     0.0000000000     0.0000000000    -26.451660495     -2.319526646     -0.000000000
       H     0.7368400000     0.0000000000     0.0000000000     28.787814781     -7.149085915     -0.000000000
       H     0.3567200000     0.8090600000     0.0000000000     -2.336154286      9.468612561     -0.000000000
