       3
Lattice="15.0 0.0 0.0 0.0 15.0 0.0 0.0 0.0 15.0" Properties=species:S:1:pos:R:3:forces:R:3 energy=        2.2666922603 pbc="T T T"
       O     0.0000000000     0.0000000000     0.0000000000      4.943920090     -2.682586227     -0.000000000
       H     1.3263200000     0.0000000000     0.0000000000     -6.368820941      1.389504097     -0.000000000
       H    -0.6332000000     0.7187500000     0.0000000000      1.424900851      1.293082129     -0.000000000
