       3
Lattice="15.0 0.0 0.0 0.0 15.0 0.0 0.0 0.0 15.0" Properties=species:S:1:pos:R:3:forces:R:3 energy=        2.8386131929 pbc="T T T"
       O     0.0000000000     0.0000000000     0.0000000000    -25.380955703     -3.001293691     -0.000000000
       H     0.7368400000     0.0000000000     0.0000000000     27.642918973     -2.971315746     -0.000000000
       H     0.0319200000     0.8836300000     0.0000000000     -2.261963270      5.972609437     -0.000000000
