       3
Lattice="15.0 0.0 0.0 0.0 15.0 0.0 0.0 0.0 15.0" Properties=species:S:1:pos:R:3:forces:R:3 energy=        5.0321253014 pbc="T T T"
       O     0.0000000000     0.0000000000     0.0000000000    -32.341652430      1.555323566     -0.000000000
       H     0.7368400000     0.0000000000     0.0000000000     27.168123412      2.403507656     -0.000000000
       H    -0.9254600000     1.0504900000     0.0000000000      5.173529018     -3.958831222     -0.000000000
