       3
Lattice="15.0 0.0 0.0 0.0 15.0 0.0 0.0 0.0 15.0" Properties=species:S:1:pos:R:3:forces:R:3 energy=        2.6081184484 pbc="T T T"
       O     0.0000000000     0.0000000000     0.0000000000     17.946839419    -23.788621553     -0.000000000
       H     1.0315800000     0.0000000000     0.0000000000     -3.800063830      1.082626026     -0.000000000
       H    -0.4244500000     0.6023100000     0.0000000000    -14.146775641     22.705995526     -0.000000000
