       3
Lattice="15.0 0.0 0.0 0.0 15.0 0.0 0.0 0.0 15.0" Properties=species:S:1:pos:R:3:forces:R:3 energy=        4.0146432541 pbc="T T T"
       O     0.0000000000     0.0000000000     0.0000000000    -28.543485869      5.952159953     -0.000000000
       H     0.7368400000     0.0000000000     0.0000000000     27.380662161      0.102132236     -0.000000000
       H    -0.2381700000     1.3047600000     0.0000000000      1.162823708     -6.054292138     -0.000000000
