       3
Lattice="15.0 0.0 0.0 0.0 15.0 0.0 0.0 0.0 15.0" Properties=species:S:1:pos:R:3:forces:R:3 energy=        3.4057707941 pbc="T T T"
       O     0.0000000000     0.0000000000     0.0000000000     23.438563944    -21.969309074     -0.000000000
       H     1.1421100000     0.0000000000     0.0000000000     -6.240850134      1.387922251     -0.000000000
       H    -0.5163000000     0.5257100000     0.0000000000    -17.197713861     20.581386823     -0.000000000
