       3
Lattice="15.0 0.0 0.0 0.0 15.0 0.0 0.0 0.0 15.0" Properties=species:S:1:pos:R:3:forces:R:3 energy=        1.1462810502 pbc="T T T"
       O     0.0000000000     0.0000000000     0.0000000000      6.536769232      1.932339615     -0.000000000
       H     1.1421100000     0.0000000000     0.0000000000     -4.107199937     -2.047476652     -0.000000000
       H     0.3005500000     0.9482500000     0.0000000000     -2.429569296      0.115137036     -0.000000000
