       3
Lattice="15.0 0.0 0.0 0.0 15.0 0.0 0.0 0.0 15.0" Properties=species:S:1:pos:R:3:forces:R:3 energy=        2.9332611472 pbc="T T T"
       O     0.0000000000     0.0000000000     0.0000000000     -7.965566438    -16.417990772     -0.000000000
       H     0.7736800000     0.0000000000     0.0000000000     18.589382519      1.129939386     -0.000000000
       H    -0.4792500000     0.6073700000     0.0000000000    -10.623816030     15.288051438     -0.000000000
