       3
Lattice="15.0 0.0 0.0 0.0 15.0 0.0 0.0 0.0 15.0" Properties=species:S:1:pos:R:3:forces:R:3 energy=        3.0095622682 pbc="T T T"
       O     0.0000000000     0.0000000000     0.0000000000      7.870119124      5.533172938     -0.000000000
       H     1.1789500000     0.0000000000     0.0000000000     -4.687239901     -1.473826448     -0.000000000
       H     0.5499500000     1.2473000000     0.0000000000     -3.182879223     -4.059346491     -0.000000000
