       3
Lattice="15.0 0.0 0.0 0.0 15.0 0.0 0.0 0.0 15.0" Properties=species:S:1:pos:R:3:forces:R:3 energy=        4.7397474596 pbc="T T T"
       O     0.0000000000     0.0000000000     0.0000000000    -38.138433809      6.153996377     -0.000000000
       H     0.7000000000     0.0000000000     0.0000000000     37.095856076     -0.107620721     -0.000000000
       H    -0.2249400000     1.2322700000     0.0000000000      1.042577733     -6.046375656     -0.000000000
