       3
Lattice="15.0 0.0 0.0 0.0 15.0 0.0 0.0 0.0 15.0" Properties=species:S:1:pos:R:3:forces:R:3 energy=        1.5308547984 pbc="T T T"
       O     0.0000000000     0.0000000000     0.0000000000    -15.900422988     -1.518127707     -0.000000000
       H     0.8105300000     0.0000000000     0.0000000000     12.685903908      1.926245481     -0.000000000
       H    -0.8026400000     0.5876000000     0.0000000000      3.214519080     -0.408117774     -0.000000000
