       3
Lattice="15.0 0.0 0.0 0.0 15.0 0.0 0.0 0.0 15.0" Properties=species:S:1:pos:R:3:forces:R:3 energy=        1.1093143252 pbc="T T T"
       O     0.0000000000     0.0000000000     0.0000000000      5.250282963     -1.189739829     -0.000000000
       H     1.2157900000     0.0000000000     0.0000000000     -6.086567622      0.743573978     -0.000000000
       H    -0.3705600000     0.8833100000     0.0000000000      0.836284660      0.446165850     -0.000000000
