       3
Lattice="15.0 0.0 0.0 0.0 15.0 0.0 0.0 0.0 15.0" Properties=species:S:1:pos:R:3:forces:R:3 energy=        0.9782636127 pbc="T T T"
       O     0.0000000000     0.0000000000     0.0000000000      6.624541954     -5.228481746     -0.000000000
       H     1.1789500000     0.0000000000     0.0000000000     -5.626380665     -0.028452869     -0.000000000
       H    -0.1587800000     0.8698400000     0.0000000000     -0.998161237      5.256934615     -0.000000000
