       3
Lattice="15.0 0.0 0.0 0.0 15.0 0.0 0.0 0.0 15.0" Properties=species:S:1:pos:R:3:forces:R:3 energy=        2.3822128362 pbc="T T T"
       O     0.0000000000     0.0000000000     0.0000000000      0.036549380      3.504798152     -0.000000000
       H     1.0684200000     0.0000000000     0.0000000000     -3.843421391      1.288051661     -0.000000000
       H    -0.6601600000     1.1926400000     0.0000000000      3.806872011     -4.792849761     -0.000000000
