       3
Lattice="15.0 0.0 0.0 0.0 15.0 0.0 0.0 0.0 15.0" Properties=species:S:1:pos:R:3:forces:R:3 energy=        1.5050102784 pbc="T T T"
       O     0.0000000000     0.0000000000     0.0000000000      1.916155593      6.353018316     -0.000000000
       H     0.9947400000     0.0000000000     0.0000000000     -1.203177911     -0.657074468     -0.000000000
       H     0.0465500000     1.2886300000     0.0000000000     -0.712977682     -5.695943848     -0.000000000
