       3
Lattice="15.0 0.0 0.0 0.0 15.0 0.0 0.0 0.0 15.0" Properties=species:S:1:pos:R:3:forces:R:3 energy=        1.3716082464 pbc="T T T"
       O     0.0000000000     0.0000000000     0.0000000000     10.029401330     -8.791797102     -0.000000000
       H     1.1052600000     0.0000000000     0.0000000000     -5.552915934      1.479556154     -0.000000000
       H    -0.5937500000     0.6045700000     0.0000000000     -4.476485395      7.312240897     -0.000000000
