       3
Lattice="15.0 0.0 0.0 0.0 15.0 0.0 0.0 0.0 15.0" Properties=species:S:1:pos:R:3:forces:R:3 energy=        2.1827670097 pbc="T T T"
       O     0.0000000000     0.0000000000     0.0000000000      1.498763589      4.326225736     -0.000000000
       H     1.1052600000     0.0000000000     0.0000000000     -4.583090016      0.959355610     -0.000000000
       H    -0.5130900000     1.2230600000     0.0000000000      3.084326479     -5.285581346     -0.000000000
