       3
Lattice="15.0 0.0 0.0 0.0 15.0 0.0 0.0 0.0 15.0" Properties=species:S:1:pos:R:3:forces:R:3 energy=        3.5895868331 pbc="T T T"
       O     0.0000000000     0.0000000000     0.0000000000    -20.427448479    -10.444844283     -0.000000000
       H     0.7736800000     0.0000000000     0.0000000000     21.075900954     -5.784649366     -0.000000000
       H     0.2448900000     0.7726500000     0.0000000000     -0.648452475     16.229493649     -0.000000000
