       3
Lattice="15.0 0.0 0.0 0.0 15.0 0.0 0.0 0.0 15.0" Properties=species:S:1:pos:R:3:forces:R:3 energy=        0.8471239706 pbc="T T T"
       O     0.0000000000     0.0000000000     0.0000000000     -2.590554163      4.559942312     -0.000000000
       H     0.9578900000     0.0000000000     0.0000000000      0.099377195      0.707014725     -0.000000000
       H    -0.3965500000     1.1102600000     0.0000000000      2.491176968     -5.266957037     -0.000000000
