       3
Lattice="15.0 0.0 0.0 0.0 15.0 0.0 0.0 0.0 15.0" Properties=species:S:1:pos:R:3:forces:R:3 energy=        1.0448954206 pbc="T T T"
       O     0.0000000000     0.0000000000     0.0000000000     -0.013058176     -7.399349708     -0.000000000
       H     0.9578900000     0.0000000000     0.0000000000      1.226055238     -2.838935238     -0.000000000
       H     0.1671900000     0.8307100000     0.0000000000     -1.212997113     10.238284997     -0.000000000
