       3
Lattice="15.0 0.0 0.0 0.0 15.0 0.0 0.0 0.0 15.0" Properties=species:S:1:pos:R:3:forces:R:3 energy=        1.5011717832 pbc="T T T"
       O     0.0000000000     0.0000000000     0.0000000000     -5.387268884      0.251229396     -0.000000000
       H     0.9578900000     0.0000000000     0.0000000000     -0.480174362      1.982999062     -0.000000000
       H    -0.9215600000     0.6746500000     0.0000000000      5.867443246     -2.234228458     -0.000000000
