       3
Lattice="15.0 0.0 0.0 0.0 15.0 0.0 0.0 0.0 15.0" Properties=species:S:1:pos:R:3:forces:R:3 energy=        1.9613122823 pbc="T T T"
       O     0.0000000000     0.0000000000     0.0000000000      0.275308560      0.710950932     -0.000000000
       H     1.1421100000     0.0000000000     0.0000000000     -5.579506604      1.756141061     -0.000000000
       H    -0.8432100000     0.7703300000     0.0000000000      5.304198044     -2.467091993     -0.000000000
