       3
Lattice="15.0 0.0 0.0 0.0 15.0 0.0 0.0 0.0 15.0" Properties=species:S:1:pos:R:3:forces:R:3 energy=        2.6081198444 pbc="T T T"
       O     0.0000000000     0.0000000000     0.0000000000      6.289052376     -0.306865575     -0.000000000
       H     1.4000000000     0.0000000000     0.0000000000     -4.685934191     -1.503319226     -0.000000000
       H     0.3864500000     0.8764800000     0.0000000000     -1.603118133      1.810184853     -0.000000000
