       3
Lattice="15.0 0.0 0.0 0.0 15.0 0.0 0.0 0.0 15.0" Properties=species:S:1:pos:R:3:forces:R:3 energy=        2.7152137534 pbc="T T T"
       O     0.0000000000     0.0000000000     0.0000000000      0.260836173      1.515475716     -0.000000000
       H     1.1789500000     0.0000000000     0.0000000000     -5.684408023      1.710004547     -0.000000000
       H    -0.8777100000     0.8937000000     0.0000000000      5.423571849     -3.225480263     -0.000000000
