       3
Lattice="15.0 0.0 0.0 0.0 15.0 0.0 0.0 0.0 15.0" Properties=species:S:1:pos:R:3:forces:R:3 energy=        1.4596609717 pbc="T T T"
       O     0.0000000000     0.0000000000     0.0000000000      6.306255687     -0.098101979     -0.000000000
       H     1.2894700000     0.0000000000     0.0000000000     -5.813798285     -0.359626128     -0.000000000
       H    -0.0172900000     0.9577300000     0.0000000000     -0.492457402      0.457728107     -0.000000000
