       3
Lattice="15.0 0.0 0.0 0.0 15.0 0.0 0.0 0.0 15.0" Properties=species:S:1:pos:R:3:forces:R:3 energy=        1.6928562802 pbc="T T T"
       O     0.0000000000     0.0000000000     0.0000000000      7.179979534    -13.213419090     -0.000000000
       H     1.1789500000     0.0000000000     0.0000000000     -5.445242146     -0.508746737     -0.000000000
       H    -0.0584900000     0.8084200000     0.0000000000     -1.734737440     13.722165826     -0.000000000
