       3
Lattice="15.0 0.0 0.0 0.0 15.0 0.0 0.0 0.0 15.0" Properties=species:S:1:pos:R:3:forces:R:3 energy=        0.2749447911 pbc="T T T"
       O     0.0000000000     0.0000000000     0.0000000000      0.525990054      3.668338131     -0.000000000
       H     0.9947400000     0.0000000000     0.0000000000     -1.589939938      0.156097043     -0.000000000
       H    -0.2484800000     1.0391200000     0.0000000000      1.063949884     -3.824435174     -0.000000000
