       3
Lattice="15.0 0.0 0.0 0.0 15.0 0.0 0.0 0.0 15.0" Properties=species:S:1:pos:R:3:forces:R:3 energy=        2.4662473922 pbc="T T T"
       O     0.0000000000     0.0000000000     0.0000000000    -10.922200560      4.073966253     -0.000000000
       H     0.8105300000     0.0000000000     0.0000000000     15.099037419     -5.646048688     -0.000000000
       H     0.4666700000     0.9199900000     0.0000000000     -4.176836807      1.572082435     -0.000000000
