       3
Lattice="15.0 0.0 0.0 0.0 15.0 0.0 0.0 0.0 15.0" Properties=species:S:1:pos:R:3:forces:R:3 energy=        0.7620434851 pbc="T T T"
       O     0.0000000000     0.0000000000     0.0000000000      3.776995933     -4.083157591     -0.000000000
       H     1.0315800000     0.0000000000     0.0000000000     -3.793554359      1.628222911     -0.000000000
       H    -0.6800000000     0.6212300000     0.0000000000      0.016558426      2.454934680     -0.000000000
