       3
Lattice="15.0 0.0 0.0 0.0 15.0 0.0 0.0 0.0 15.0" Properties=species:S:1:pos:R:3:forces:R:3 energy=        0.9154233168 pbc="T T T"
       O     0.0000000000     0.0000000000     0.0000000000      5.648577627     -8.304558219     -0.000000000
       H     0.9578900000     0.0000000000     0.0000000000     -0.913248612      1.571854790     -0.000000000
       H    -0.6256100000     0.5715300000     0.0000000000     -4.735328963      6.732703429     -0.000000000
