       3
Lattice="15.0 0.0 0.0 0.0 15.0 0.0 0.0 0.0 15.0" Properties=species:S:1:pos:R:3:forces:R:3 energy=        0.3243679199 pbc="T T T"
       O     0.0000000000     0.0000000000     0.0000000000     -4.149903409     -0.293306291     -0.000000000
       H     0.9210500000     0.0000000000     0.0000000000      1.826155062      1.377156008     -0.000000000
       H    -0.5730100000     0.8131200000     0.0000000000      2.323748348     -1.083849666     -0.000000000
