       3
Lattice="15.0 0.0 0.0 0.0 15.0 0.0 0.0 0.0 15.0" Properties=species:S:1:pos:R:3:forces:R:3 energy=        0.2833234517 pbc="T T T"
       O     0.0000000000     0.0000000000     0.0000000000      1.251996756      4.121993763     -0.000000000
       H     0.9947400000     0.0000000000     0.0000000000     -1.439035086     -0.315976489     -0.000000000
       H    -0.1346700000     1.0599000000     0.0000000000      0.187038330     -3.806017325     -0.000000000
