       3
Lattice="15.0 0.0 0.0 0.0 15.0 0.0 0.0 0.0 15.0" Properties=species:S:1:pos:R:3:forces:R:3 energy=        2.1360104607 pbc="T T T"
       O     0.0000000000     0.0000000000     0.0000000000      7.122664733      1.487675187     -0.000000000
       H     1.3263200000     0.0000000000     0.0000000000     -4.964536233     -1.523781977     -0.000000000
       H     0.3514500000     0.9305900000     0.0000000000     -2.158128500      0.036106739     -0.000000000
