       3
Lattice="15.0 0.0 0.0 0.0 15.0 0.0 0.0 0.0 15.0" Properties=species:S:1:pos:R:3:forces:R:3 energy=        0.6896601017 pbc="T T T"
       O     0.0000000000     0.0000000000     0.0000000000      2.889946926     -5.855940588     -0.000000000
       H     0.9578900000     0.0000000000     0.0000000000     -0.844591486      1.616072180     -0.000000000
       H    -0.6528100000     0.5963800000     0.0000000000     -2.045355439      4.239868408     -0.000000000
