       3
Lattice="15.0 0.0 0.0 0.0 15.0 0.0 0.0 0.0 15.0" Properties=species:S:1:pos:R:3:forces:R:3 energy=        1.7697180427 pbc="T T T"
       O     0.0000000000     0.0000000000     0.0000000000     -6.406768230      3.985865767     -0.000000000
       H     0.8473700000     0.0000000000     0.0000000000     10.316197019     -4.710851895     -0.000000000
       H     0.4161800000     0.9439000000     0.0000000000     -3.909428788      0.724986179     -0.000000000
