       3
Lattice="15.0 0.0 0.0 0.0 15.0 0.0 0.0 0.0 15.0" Properties=species:S:1:pos:R:3:forces:R:3 energy=        4.5634775543 pbc="T T T"
       O     0.0000000000     0.0000000000     0.0000000000    -41.919537184      1.315751197     -0.000000000
       H     0.7000000000     0.0000000000     0.0000000000     36.527929098      2.226529646     -0.000000000
       H    -0.8002700000     0.8148500000     0.0000000000      5.391608086     -3.542280843     -0.000000000
