       3
Lattice="15.0 0.0 0.0 0.0 15.0 0.0 0.0 0.0 15.0" Properties=species:S:1:pos:R:3:forces:R:3 energy=        1.2812996101 pbc="T T T"
       O     0.0000000000     0.0000000000     0.0000000000      4.028328636      5.507576668     -0.000000000
       H     0.9947400000     0.0000000000     0.0000000000     -0.474861124     -2.662821787     -0.000000000
       H     0.4035100000     1.0684500000     0.0000000000     -3.553467512     -2.844754881     -0.000000000
