       3
Lattice="15.0 0.0 0.0 0.0 15.0 0.0 0.0 0.0 15.0" Properties=species:S:1:pos:R:3:forces:R:3 energy=        0.7540155657 pbc="T T T"
       O     0.0000000000     0.0000000000     0.0000000000     -3.707278124      1.267066153     -0.000000000
       H     0.8842100000     0.0000000000     0.0000000000      6.147629860     -2.951833819     -0.000000000
       H     0.1889900000     0.9390600000     0.0000000000     -2.440351788      1.684767667     -0.000000000
