       3
Lattice="15.0 0.0 0.0 0.0 15.0 0.0 0.0 0.0 15.0" Properties=species:S:1:pos:R:3:forces:R:3 energy=        2.1210652654 pbc="T T T"
       O     0.0000000000     0.0000000000     0.0000000000      7.675174237      5.497180871     -0.000000000
       H     1.1421100000     0.0000000000     0.0000000000     -4.097758276     -1.969583399     -0.000000000
       H     0.4904900000     1.1124600000     0.0000000000     -3.577415961     -3.527597471     -0.000000000
