       3
Lattice="15.0 0.0 0.0 0.0 15.0 0.0 0.0 0.0 15.0" Properties=species:S:1:pos:R:3:forces:R:3 energy=        1.3759140291 pbc="T T T"
       O     0.0000000000     0.0000000000     0.0000000000      6.680652604      5.469773669     -0.000000000
       H     1.1421100000     0.0000000000     0.0000000000     -4.550332501     -1.257322336     -0.000000000
       H     0.2253400000     1.1196600000     0.0000000000     -2.130320103     -4.212451334     -0.000000000
