       3
Lattice="15.0 0.0 0.0 0.0 15.0 0.0 0.0 0.0 15.0" Properties=species:S:1:pos:R:3:forces:R:3 energy=        2.1084946038 pbc="T T T"
       O     0.0000000000     0.0000000000     0.0000000000    -14.584248999      0.467064815     -0.000000000
       H     0.8473700000     0.0000000000     0.0000000000      8.336949146      2.171835880     -0.000000000
       H    -0.9512800000     0.6964100000     0.0000000000      6.247299801     -2.638900746     -0.000000000
