       3
Lattice="15.0 0.0 0.0 0.0 15.0 0.0 0.0 0.0 15.0" Properties=species:S:1:pos:R:3:forces:R:3 energy=        1.2508295790 pbc="T T T"
       O     0.0000000000     0.0000000000     0.0000000000     10.564873514    -12.513174185     -0.000000000
       H     1.0315800000     0.0000000000     0.0000000000     -3.770961448      1.277759222     -0.000000000
       H    -0.5020800000     0.6363000000     0.0000000000     -6.793912066     11.235414964     -0.000000000
