       3
Lattice="15.0 0.0 0.0 0.0 15.0 0.0 0.0 0.0 15.0" Properties=species:S:1:pos:R:3:forces:R:3 energy=        2.3405590016 pbc="T T T"
       O     0.0000000000     0.0000000000     0.0000000000      7.122318713     -9.072819427     -0.000000000
       H     1.3631600000     0.0000000000     0.0000000000     -5.960809302     -0.004971950     -0.000000000
       H    -0.1068100000     0.8406100000     0.0000000000     -1.161509411      9.077791378     -0.000000000
