       3
Lattice="15.0 0.0 0.0 0.0 15.0 0.0 0.0 0.0 15.0" Properties=species:S:1:pos:R:3:forces:R:3 energy=        4.9670422240 pbc="T T T"
       O     0.0000000000     0.0000000000     0.0000000000    -38.226681825      6.112258714     -0.000000000
       H     0.7000000000     0.0000000000     0.0000000000     37.120959311     -0.013604690     -0.000000000
       H    -0.2315500000     1.2685100000     0.0000000000      1.105722514     -6.098654075     -0.000000000
