       3
Lattice="15.0 0.0 0.0 0.0 15.0 0.0 0.0 0.0 15.0" Properties=species:S:1:pos:R:3:forces:R:3 energy=        2.4316413746 pbc="T T T"
       O     0.0000000000     0.0000000000     0.0000000000      9.726993021     -9.444351774     -0.000000000
       H     1.3263200000     0.0000000000     0.0000000000     -6.435279669      1.061430048     -0.000000000
       H    -0.4499000000     0.7180700000     0.0000000000     -3.291713352      8.382921727     -0.000000000
