       3
Lattice="15.0 0.0 0.0 0.0 15.0 0.0 0.0 0.0 15.0" Properties=species:S:1:pos:R:3:forces:R:3 energy=        2.2290026131 pbc="T T T"
       O     0.0000000000     0.0000000000     0.0000000000     -4.995786516    -17.558171690     -0.000000000
       H     0.8105300000     0.0000000000     0.0000000000     12.982903230      0.317924924     -0.000000000
       H    -0.3374800000     0.6961900000     0.0000000000     -7.987116715     17.240246766     -0.000000000
