       3
Lattice="15.0 0.0 0.0 0.0 15.0 0.0 0.0 0.0 15.0" Properties=species:S:1:pos:R:3:forces:R:3 energy=        4.3038237852 pbc="T T T"
       O     0.0000000000     0.0000000000     0.0000000000    -24.218002668      4.507766634     -0.000000000
       H     0.7368400000     0.0000000000     0.0000000000     28.599203758     -7.188295206     -0.000000000
       H     0.5157900000     0.8933700000     0.0000000000     -4.381201090      2.680528572     -0.000000000
