       3
Lattice="15.0 0.0 0.0 0.0 15.0 0.0 0.0 0.0 15.0" Properties=species:S:1:pos:R:3:forces:R:3 energy=        1.2955109442 pbc="T T T"
       O     0.0000000000     0.0000000000     0.0000000000      6.409632698      1.749264951     -0.000000000
       H     1.2526300000     0.0000000000     0.0000000000     -5.642628708     -0.575033613     -0.000000000
       H     0.0359100000     0.9940900000     0.0000000000     -0.767003990     -1.174231390     -0.000000000
