       3
Lattice="15.0 0.0 0.0 0.0 15.0 0.0 0.0 0.0 15.0" Properties=species:S:1:pos:R:3:forces:R:3 energy=        2.2049182780 pbc="T T T"
       O     0.0000000000     0.0000000000     0.0000000000     -2.673870183      6.509764769     -0.000000000
       H     0.8842100000     0.0000000000     0.0000000000      6.082192528     -2.673108982     -0.000000000
       H     0.4555800000     1.2063100000     0.0000000000     -3.408322345     -3.836655787     -0.000000000
