       3
Lattice="15.0 0.0 0.0 0.0 15.0 0.0 0.0 0.0 15.0" Properties=species:S:1:pos:R:3:forces:R:3 energy=        2.5258307083 pbc="T T T"
       O     0.0000000000     0.0000000000     0.0000000000      3.678103802    -25.943149375     -0.000000000
       H     0.9947400000     0.0000000000     0.0000000000     -1.172427349     -1.488966756     -0.000000000
       H    -0.0133000000     0.7367200000     0.0000000000     -2.505676454     27.432116182     -0.000000000
