       3
Lattice="15.0 0.0 0.0 0.0 15.0 0.0 0.0 0.0 15.0" Properties=species:S:1:pos:R:3:forces:R:3 energy=        2.8077818599 pbc="T T T"
       O     0.0000000000     0.0000000000     0.0000000000      6.135970621      5.723714655     -0.000000000
       H     1.3631600000     0.0000000000     0.0000000000     -5.667664683     -0.240874016     -0.000000000
       H     0.0438900000     1.2150000000     0.0000000000     -0.468305887     -5.482840639     -0.000000000
