       3
Lattice="15.0 0.0 0.0 0.0 15.0 0.0 0.0 0.0 15.0" Properties=species:S:1:pos:R:3:forces:R:3 energy=        0.8886514219 pbc="T T T"
       O     0.0000000000     0.0000000000     0.0000000000      5.385762166      2.124122919     -0.000000000
       H     1.0684200000     0.0000000000     0.0000000000     -2.751273846     -2.421957387     -0.000000000
       H     0.3005500000     0.9482500000     0.0000000000     -2.634488320      0.297834417     -0.000000000
