       3
Lattice="15.0 0.0 0.0 0.0 15.0 0.0 0.0 0.0 15.0" Properties=species:S:1:pos:R:3:forces:R:3 energy=        3.2426854012 pbc="T T T"
       O     0.0000000000     0.0000000000     0.0000000000    -10.750267263      6.615448574     -0.000000000
       H     0.8105300000     0.0000000000     0.0000000000     14.405083699     -3.251604689     -0.000000000
       H     0.5350800000     1.2135900000     0.0000000000     -3.654816487     -3.363843937     -0.000000000
