       3
Lattice="15.0 0.0 0.0 0.0 15.0 0.0 0.0 0.0 15.0" Properties=species:S:1:pos:R:3:forces:R:3 energy=        1.7707379717 pbc="T T T"
       O     0.0000000000     0.0000000000     0.0000000000    -22.149721617      0.929079210     -0.000000000
       H     0.7736800000     0.0000000000     0.0000000000     19.073969771      1.492430239     -0.000000000
       H    -0.5942300000     0.8432400000     0.0000000000      3.075751897     -2.421509449     -0.000000000
