       3
Lattice="15.0 0.0 0.0 0.0 15.0 0.0 0.0 0.0 15.0" Properties=species:S:1:pos:R:3:forces:R:3 energy=        2.5516293091 pbc="T T T"
       O     0.0000000000     0.0000000000     0.0000000000    -29.542113864      1.333566945     -0.000000000
       H     0.7368400000     0.0000000000     0.0000000000     26.770841661      1.317313554     -0.000000000
       H    -0.5477100000     0.8741700000     0.0000000000      2.771272255     -2.650880499     -0.000000000
