       3
Lattice="15.0 0.0 0.0 0.0 15.0 0.0 0.0 0.0 15.0" Properties=species:S:1:pos:R:3:forces:R:3 energy=        1.6489146429 pbc="T T T"
       O     0.0000000000     0.0000000000     0.0000000000    -13.780019583      0.076530002     -0.000000000
       H     0.8473700000     0.0000000000     0.0000000000      8.200017475      2.055451549     -0.000000000
       H    -0.8918200000     0.6528800000     0.0000000000      5.580002056     -2.131981551     -0.000000000
