       3
Lattice="15.0 0.0 0.0 0.0 15.0 0.0 0.0 0.0 15.0" Properties=species:S:1:pos:R:3:forces:R:3 energy=        2.3485711493 pbc="T T T"
       O     0.0000000000     0.0000000000     0.0000000000     17.563581962    -16.413461515     -0.000000000
       H     1.1052600000     0.0000000000     0.0000000000     -5.675550723      1.417912949     -0.000000000
       H    -0.5421100000     0.5519900000     0.0000000000    -11.888031240     14.995548566     -0.000000000
