       3
Lattice="15.0 0.0 0.0 0.0 15.0 0.0 0.0 0.0 15.0" Properties=species:S:1:pos:R:3:forces:R:3 energy=        3.9238192260 pbc="T T T"
       O     0.0000000000     0.0000000000     0.0000000000      8.477704204      4.889919956     -0.000000000
       H     1.3263200000     0.0000000000     0.0000000000     -4.966463944     -1.259814456     -0.000000000
       H     0.6815800000     1.1805300000     0.0000000000     -3.511240208     -3.630105500     -0.000000000
