       3
Lattice="15.0 0.0 0.0 0.0 15.0 0.0 0.0 0.0 15.0" Properties=species:S:1:pos:R:3:forces:R:3 energy=        2.0171012019 pbc="T T T"
       O     0.0000000000     0.0000000000     0.0000000000      3.590029079      5.722197395     -0.000000000
       H     1.1052600000     0.0000000000     0.0000000000     -4.438664193      0.125700367     -0.000000000
       H    -0.1671800000     1.3157400000     0.0000000000      0.848635114     -5.847897762     -0.000000000
