       3
Lattice="15.0 0.0 0.0 0.0 15.0 0.0 0.0 0.0 15.0" Properties=species:S:1:pos:R:3:forces:R:3 energy=        1.5567679319 pbc="T T T"
       O     0.0000000000     0.0000000000     0.0000000000      6.715148597      0.133480529     -0.000000000
       H     1.2526300000     0.0000000000     0.0000000000     -5.119654405     -1.429086300     -0.000000000
       H     0.2395600000     0.9274500000     0.0000000000     -1.595494192      1.295605771     -0.000000000
