       3
Lattice="15.0 0.0 0.0 0.0 15.0 0.0 0.0 0.0 15.0" Properties=species:S:1:pos:R:3:forces:R:3 energy=        2.7907085655 pbc="T T T"
       O     0.0000000000     0.0000000000     0.0000000000      0.445756428      5.731819085     -0.000000000
       H     0.9210500000     0.0000000000     0.0000000000      3.490550274     -3.091138414     -0.000000000
       H     0.6815800000     1.1805300000     0.0000000000     -3.936306702     -2.640680722     -0.000000000
