       3
Lattice="15.0 0.0 0.0 0.0 15.0 0.0 0.0 0.0 15.0" Properties=species:S:1:pos:R:3:forces:R:3 energy=        6.5115346616 pbc="T T T"
       O     0.0000000000     0.0000000000     0.0000000000    -42.854109405      0.220962613     -0.000000000
       H     0.7000000000     0.0000000000     0.0000000000     36.863475703      2.845370506     -0.000000000
       H    -1.0832200000     0.8869300000     0.0000000000      5.990633702     -3.066333119     -0.000000000
