       3
Lattice="15.0 0.0 0.0 0.0 15.0 0.0 0.0 0.0 15.0" Properties=species:S:1:pos:R:3:forces:R:3 energy=        2.7532992419 pbc="T T T"
       O     0.0000000000     0.0000000000     0.0000000000    -14.799867777      0.806347646     -0.000000000
       H     0.8473700000     0.0000000000     0.0000000000      8.586914896      2.314779513     -0.000000000
       H    -0.9977000000     0.8169100000     0.0000000000      6.212952829     -3.121127159     -0.000000000
