       3
Lattice="15.0 0.0 0.0 0.0 15.0 0.0 0.0 0.0 15.0" Properties=species:S:1:pos:R:3:forces:R:3 energy=        0.8993537444 pbc="T T T"
       O     0.0000000000     0.0000000000     0.0000000000    -11.029913173     -0.994578968     -0.000000000
       H     0.8473700000     0.0000000000     0.0000000000      8.167867718      1.764108451     -0.000000000
       H    -0.6970100000     0.7097100000     0.0000000000      2.862045455     -0.769529431     -0.000000000
