       3
Lattice="15.0 0.0 0.0 0.0 15.0 0.0 0.0 0.0 15.0" Properties=species:S:1:pos:R:3:forces:R:3 energy=        2.8948082887 pbc="T T T"
       O     0.0000000000     0.0000000000     0.0000000000     18.443698243    -24.526723501     -0.000000000
       H     1.1052600000     0.0000000000     0.0000000000     -5.430269576      0.982057742     -0.000000000
       H    -0.3912200000     0.6244100000     0.0000000000    -13.013428616     23.544665759     -0.000000000
