       3
Lattice="15.0 0.0 0.0 0.0 15.0 0.0 0.0 0.0 15.0" Properties=species:S:1:pos:R:3:forces:R:3 energy=        2.1241685471 pbc="T T T"
       O     0.0000000000     0.0000000000     0.0000000000    -12.059047167      6.872286989     -0.000000000
       H     0.8105300000     0.0000000000     0.0000000000     14.088883369     -1.950351076     -0.000000000
       H     0.1750000000     1.2031300000     0.0000000000     -2.029836202     -4.921935913     -0.000000000
