       3
Lattice="15.0 0.0 0.0 0.0 15.0 0.0 0.0 0.0 15.0" Properties=species:S:1:pos:R:3:forces:R:3 energy=        1.5348816101 pbc="T T T"
       O     0.0000000000     0.0000000000     0.0000000000      5.113873431      5.497185344     -0.000000000
       H     1.1789500000     0.0000000000     0.0000000000     -5.372822414     -0.129074376     -0.000000000
       H    -0.0850700000     1.1758800000     0.0000000000      0.258949034     -5.368111020     -0.000000000
