       3
Lattice="15.0 0.0 0.0 0.0 15.0 0.0 0.0 0.0 15.0" Properties=species:S:1:pos:R:3:forces:R:3 energy=        2.8385835651 pbc="T T T"
       O     0.0000000000     0.0000000000     0.0000000000     -3.911942660    -25.257717837     -0.000000000
       H     0.8842100000     0.0000000000     0.0000000000      5.883909164     -2.476571603     -0.000000000
       H     0.0266000000     0.7363600000     0.0000000000     -1.971966556     27.734289440     -0.000000000
