       3
Lattice="15.0 0.0 0.0 0.0 15.0 0.0 0.0 0.0 15.0" Properties=species:S:1:pos:R:3:forces:R:3 energy=        2.7202645485 pbc="T T T"
       O     0.0000000000     0.0000000000     0.0000000000      0.998095365      2.335303353     -0.000000000
       H     1.2157900000     0.0000000000     0.0000000000     -5.858374756      1.489835018     -0.000000000
       H    -0.7759400000     0.9833600000     0.0000000000      4.860279391     -3.825138371     -0.000000000
