       3
Lattice="15.0 0.0 0.0 0.0 15.0 0.0 0.0 0.0 15.0" Properties=species:S:1:pos:R:3:forces:R:3 energy=        3.6742671806 pbc="T T T"
       O     0.0000000000     0.0000000000     0.0000000000    -26.513623699      6.989589975     -0.000000000
       H     0.7368400000     0.0000000000     0.0000000000     27.530307172     -1.383166016     -0.000000000
       H     0.0452200000     1.2518100000     0.0000000000     -1.016683473     -5.606424010     -0.000000000
