       3
Lattice="15.0 0.0 0.0 0.0 15.0 0.0 0.0 0.0 15.0" Properties=species:S:1:pos:R:3:forces:R:3 energy=        1.9160645991 pbc="T T T"
       O     0.0000000000     0.0000000000     0.0000000000      7.235854260      5.693060303     -0.000000000
       H     1.2157900000     0.0000000000     0.0000000000     -5.237705531     -1.001991102     -0.000000000
       H     0.2326100000     1.1557700000     0.0000000000     -1.998148729     -4.691069150     -0.000000000
