       3
Lattice="15.0 0.0 0.0 0.0 15.0 0.0 0.0 0.0 15.0" Properties=species:S:1:pos:R:3:forces:R:3 energy=        3.8092329558 pbc="T T T"
       O     0.0000000000     0.0000000000     0.0000000000      1.225135194      2.301070847     -0.000000000
       H     1.2894700000     0.0000000000     0.0000000000     -5.839995165      1.403758814     -0.000000000
       H    -0.8444100000     1.0701300000     0.0000000000      4.614859970     -3.704829661     -0.000000000
