       3
Lattice="15.0 0.0 0.0 0.0 15.0 0.0 0.0 0.0 15.0" Properties=species:S:1:pos:R:3:forces:R:3 energy=        3.7428348038 pbc="T T T"
       O     0.0000000000     0.0000000000     0.0000000000      8.534559498      4.927357035     -0.000000000
       H     1.3263200000     0.0000000000     0.0000000000     -4.918923402     -1.335125754     -0.000000000
       H     0.6631600000     1.1486300000     0.0000000000     -3.615636096     -3.592231282     -0.000000000
