       3
Lattice="15.0 0.0 0.0 0.0 15.0 0.0 0.0 0.0 15.0" Properties=species:S:1:pos:R:3:forces:R:3 energy=        3.7146455195 pbc="T T T"
       O     0.0000000000     0.0000000000     0.0000000000      1.510079379      2.712230957     -0.000000000
       H     1.2894700000     0.0000000000     0.0000000000     -5.848754094      1.303693746     -0.000000000
       H    -0.7852300000     1.1142800000     0.0000000000      4.338674715     -4.015924651     -0.000000000
