       3
Lattice="15.0 0.0 0.0 0.0 15.0 0.0 0.0 0.0 15.0" Properties=species:S:1:pos:R:3:forces:R:3 energy=        0.7717167655 pbc="T T T"
       O     0.0000000000     0.0000000000     0.0000000000      5.854550546      2.139456780     -0.000000000
       H     1.1052600000     0.0000000000     0.0000000000     -3.861843200     -1.675878845     -0.000000000
       H     0.1962700000     0.9751900000     0.0000000000     -1.992707346     -0.463577935     -0.000000000
