       3
Lattice="15.0 0.0 0.0 0.0 15.0 0.0 0.0 0.0 15.0" Properties=species:S:1:pos:R:3:forces:R:3 energy=        3.0862695598 pbc="T T T"
       O     0.0000000000     0.0000000000     0.0000000000      1.567093362    -18.237293841     -0.000000000
       H     1.2157900000     0.0000000000     0.0000000000     -4.564018541     -2.090422425     -0.000000000
       H     0.2337600000     0.7375200000     0.0000000000      2.996925179     20.327716317     -0.000000000
