       3
Lattice="15.0 0.0 0.0 0.0 15.0 0.0 0.0 0.0 15.0" Properties=species:S:1:pos:R:3:forces:R:3 energy=        2.6073629243 pbc="T T T"
       O     0.0000000000     0.0000000000     0.0000000000      0.879634148    -14.445775488     -0.000000000
       H     0.8105300000     0.0000000000     0.0000000000     12.287373680      1.556862577     -0.000000000
       H    -0.5986200000     0.4901400000     0.0000000000    -13.167007879     12.888912910     -0.000000000
