       3
Lattice="15.0 0.0 0.0 0.0 15.0 0.0 0.0 0.0 15.0" Properties=species:S:1:pos:R:3:forces:R:3 energy=        2.6555087969 pbc="T T T"
       O     0.0000000000     0.0000000000     0.0000000000     14.554247656    -18.583451393     -0.000000000
       H     1.2157900000     0.0000000000     0.0000000000     -6.405298381      0.909683159     -0.000000000
       H    -0.3746800000     0.6769000000     0.0000000000     -8.148949275     17.673768234     -0.000000000
