       3
Lattice="15.0 0.0 0.0 0.0 15.0 0.0 0.0 0.0 15.0" Properties=species:S:1:pos:R:3:forces:R:3 energy=        2.1502182464 pbc="T T T"
       O     0.0000000000     0.0000000000     0.0000000000      6.602302466     -8.832699156     -0.000000000
       H     1.3263200000     0.0000000000     0.0000000000     -5.839695425     -0.380855428     -0.000000000
       H    -0.0153000000     0.8472300000     0.0000000000     -0.762607041      9.213554585     -0.000000000
