       3
Lattice="15.0 0.0 0.0 0.0 15.0 0.0 0.0 0.0 15.0" Properties=species:S:1:pos:R:3:forces:R:3 energy=        0.6201427766 pbc="T T T"
       O     0.0000000000     0.0000000000     0.0000000000      0.103239045      4.809354246     -0.000000000
       H     0.9947400000     0.0000000000     0.0000000000     -1.545684547      0.257698912     -0.000000000
       H    -0.2656200000     1.1107900000     0.0000000000      1.442445502     -5.067053158     -0.000000000
