       3
Lattice="15.0 0.0 0.0 0.0 15.0 0.0 0.0 0.0 15.0" Properties=species:S:1:pos:R:3:forces:R:3 energy=        2.0250533322 pbc="T T T"
       O     0.0000000000     0.0000000000     0.0000000000      4.128176703     -0.554564125     -0.000000000
       H     1.3263200000     0.0000000000     0.0000000000     -6.244972334      1.120129183     -0.000000000
       H    -0.5281500000     0.8429500000     0.0000000000      2.116795631     -0.565565007     -0.000000000
