       3
Lattice="15.0 0.0 0.0 0.0 15.0 0.0 0.0 0.0 15.0" Properties=species:S:1:pos:R:3:forces:R:3 energy=        3.4335845259 pbc="T T T"
       O     0.0000000000     0.0000000000     0.0000000000      6.092170110      5.830587391     -0.000000000
       H     1.3263200000     0.0000000000     0.0000000000     -5.712804842     -0.179996024     -0.000000000
       H     0.0492100000     1.3622700000     0.0000000000     -0.379365268     -5.650591367     -0.000000000
