       3
Lattice="15.0 0.0 0.0 0.0 15.0 0.0 0.0 0.0 15.0" Properties=species:S:1:pos:R:3:forces:R:3 energy=        3.4481628572 pbc="T T T"
       O     0.0000000000     0.0000000000     0.0000000000    -36.600742774      0.571021713     -0.000000000
       H     0.7000000000     0.0000000000     0.0000000000     36.781249985     -0.330526009     -0.000000000
       H    -0.2728800000     0.9182000000     0.0000000000     -0.180507262     -0.240495704     -0.000000000
