       3
Lattice="15.0 0.0 0.0 0.0 15.0 0.0 0.0 0.0 15.0" Properties=species:S:1:pos:R:3:forces:R:3 energy=        2.2679835331 pbc="T T T"
       O     0.0000000000     0.0000000000     0.0000000000     -1.218737875     -7.228748756     -0.000000000
       H     0.9947400000     0.0000000000     0.0000000000      1.127113743     -5.245619648     -0.000000000
       H     0.4236900000     0.7338400000     0.0000000000      0.091624133     12.474368404     -0.000000000
