       3
Lattice="15.0 0.0 0.0 0.0 15.0 0.0 0.0 0.0 15.0" Properties=species:S:1:pos:R:3:forces:R:3 energy=        5.9150834564 pbc="T T T"
       O     0.0000000000     0.0000000000     0.0000000000    -37.037874021    -15.796235565     -0.000000000
       H     0.7000000000     0.0000000000     0.0000000000     37.952121096     -5.672283466     -0.000000000
       H     0.1526500000     0.7584700000     0.0000000000     -0.914247075     21.468519031     -0.000000000
