       3
Lattice="15.0 0.0 0.0 0.0 15.0 0.0 0.0 0.0 15.0" Properties=species:S:1:pos:R:3:forces:R:3 energy=        3.6384307785 pbc="T T T"
       O     0.0000000000     0.0000000000     0.0000000000    -31.688341596      2.868288457     -0.000000000
       H     0.7368400000     0.0000000000     0.0000000000     26.973189375      1.862806566     -0.000000000
       H    -0.7003400000     0.9938100000     0.0000000000      4.715152221     -4.731094971     -0.000000000
