       3
Lattice="15.0 0.0 0.0 0.0 15.0 0.0 0.0 0.0 15.0" Properties=species:S:1:pos:R:3:forces:R:3 energy=        2.7727318368 pbc="T T T"
       O     0.0000000000     0.0000000000     0.0000000000      1.340786451      3.166415619     -0.000000000
       H     1.1789500000     0.0000000000     0.0000000000     -5.523474167      1.312322526     -0.000000000
       H    -0.7042000000     1.1239400000     0.0000000000      4.182687715     -4.478738146     -0.000000000
