       3
Lattice="15.0 0.0 0.0 0.0 15.0 0.0 0.0 0.0 15.0" Properties=species:S:1:pos:R:3:forces:R:3 energy=        4.9927383467 pbc="T T T"
       O     0.0000000000     0.0000000000     0.0000000000      9.340540041    -36.693758286     -0.000000000
       H     1.2894700000     0.0000000000     0.0000000000     -5.991134398     -0.362010108     -0.000000000
       H    -0.0505100000     0.6981800000     0.0000000000     -3.349405643     37.055768393     -0.000000000
