       3
Lattice="15.0 0.0 0.0 0.0 15.0 0.0 0.0 0.0 15.0" Properties=species:S:1:pos:R:3:forces:R:3 energy=        3.6208649526 pbc="T T T"
       O     0.0000000000     0.0000000000     0.0000000000    -25.547742370      7.162111644     -0.000000000
       H     0.7368400000     0.0000000000     0.0000000000     27.652597329     -2.276528216     -0.000000000
       H     0.1750000000     1.2031300000     0.0000000000     -2.104854960     -4.885583428     -0.000000000
