       3
Lattice="15.0 0.0 0.0 0.0 15.0 0.0 0.0 0.0 15.0" Properties=species:S:1:pos:R:3:forces:R:3 energy=        1.6826563343 pbc="T T T"
       O     0.0000000000     0.0000000000     0.0000000000      0.431694749      5.915920237     -0.000000000
       H     0.9210500000     0.0000000000     0.0000000000      3.539887967     -3.301503603     -0.000000000
       H     0.4756300000     1.0787500000     0.0000000000     -3.971582717     -2.614416685     -0.000000000
