       3
Lattice="15.0 0.0 0.0 0.0 15.0 0.0 0.0 0.0 15.0" Properties=species:S:1:pos:R:3:forces:R:3 energy=        2.1149667231 pbc="T T T"
       O     0.0000000000     0.0000000000     0.0000000000     10.457645709     -9.276899552     -0.000000000
       H     1.2526300000     0.0000000000     0.0000000000     -6.573356562      1.285794180     -0.000000000
       H    -0.5249000000     0.6652200000     0.0000000000     -3.884289198      7.991105372     -0.000000000
