       3
Lattice="15.0 0.0 0.0 0.0 15.0 0.0 0.0 0.0 15.0" Properties=species:S:1:pos:R:3:forces:R:3 energy=        1.6160414546 pbc="T T T"
       O     0.0000000000     0.0000000000     0.0000000000      4.767357673      6.286867452     -0.000000000
       H     1.0315800000     0.0000000000     0.0000000000     -2.195256635     -1.601027877     -0.000000000
       H     0.3132700000     1.2128300000     0.0000000000     -2.572101038     -4.685839575     -0.000000000
