       3
Lattice="15.0 0.0 0.0 0.0 15.0 0.0 0.0 0.0 15.0" Properties=species:S:1:pos:R:3:forces:R:3 energy=        1.5911550910 pbc="T T T"
       O     0.0000000000     0.0000000000     0.0000000000      4.855697734      4.178553534     -0.000000000
       H     1.2526300000     0.0000000000     0.0000000000     -5.908872274      0.217620177     -0.000000000
       H    -0.1984700000     1.0872900000     0.0000000000      1.053174540     -4.396173711     -0.000000000
