       3
Lattice="15.0 0.0 0.0 0.0 15.0 0.0 0.0 0.0 15.0" Properties=species:S:1:pos:R:3:forces:R:3 energy=        2.4641470542 pbc="T T T"
       O     0.0000000000     0.0000000000     0.0000000000    -16.786514927    -11.552826643     -0.000000000
       H     0.7736800000     0.0000000000     0.0000000000     19.804327707     -2.119681542     -0.000000000
       H    -0.0584900000     0.8084200000     0.0000000000     -3.017812780     13.672508185     -0.000000000
