       3
Lattice="15.0 0.0 0.0 0.0 15.0 0.0 0.0 0.0 15.0" Properties=species:S:1:pos:R:3:forces:R:3 energy=        2.2457669385 pbc="T T T"
       O     0.0000000000     0.0000000000     0.0000000000      5.101712571     -1.395217451     -0.000000000
       H     1.4000000000     0.0000000000     0.0000000000     -5.984044218      0.732188768     -0.000000000
       H    -0.3705600000     0.8833100000     0.0000000000      0.882331648      0.663028683     -0.000000000
