       3
Lattice="15.0 0.0 0.0 0.0 15.0 0.0 0.0 0.0 15.0" Properties=species:S:1:pos:R:3:forces:R:3 energy=        3.3994969560 pbc="T T T"
       O     0.0000000000     0.0000000000     0.0000000000     20.402527587    -24.165535375     -0.000000000
       H     1.1789500000     0.0000000000     0.0000000000     -6.370033936      1.125826493     -0.000000000
       H    -0.4244500000     0.6023100000     0.0000000000    -14.032493702     23.039708882     -0.000000000
