       3
Lattice="15.0 0.0 0.0 0.0 15.0 0.0 0.0 0.0 15.0" Properties=species:S:1:pos:R:3:forces:R:3 energy=        1.8935209455 pbc="T T T"
       O     0.0000000000     0.0000000000     0.0000000000      1.834514545      1.371666083     -0.000000000
       H     1.2157900000     0.0000000000     0.0000000000     -6.078811577      1.443633095     -0.000000000
       H    -0.6846500000     0.8676700000     0.0000000000      4.244297033     -2.815299127     -0.000000000
