       3
Lattice="15.0 0.0 0.0 0.0 15.0 0.0 0.0 0.0 15.0" Properties=species:S:1:pos:R:3:forces:R:3 energy=        1.5577024988 pbc="T T T"
       O     0.0000000000     0.0000000000     0.0000000000      6.094103838     -1.949386655     -0.000000000
       H     1.2157900000     0.0000000000     0.0000000000     -4.724304376     -1.861523996     -0.000000000
       H     0.2782900000     0.8780000000     0.0000000000     -1.369799462      3.810910599     -0.000000000
