       3
Lattice="15.0 0.0 0.0 0.0 15.0 0.0 0.0 0.0 15.0" Properties=species:S:1:pos:R:3:forces:R:3 energy=        0.1790374530 pbc="T T T"
       O     0.0000000000     0.0000000000     0.0000000000      2.510893481     -0.859845386     -0.000000000
       H     1.0315800000     0.0000000000     0.0000000000     -3.214924543      0.670761845     -0.000000000
       H    -0.3705600000     0.8833100000     0.0000000000      0.704031061      0.189083592     -0.000000000
