       3
Lattice="15.0 0.0 0.0 0.0 15.0 0.0 0.0 0.0 15.0" Properties=species:S:1:pos:R:3:forces:R:3 energy=        3.6070769787 pbc="T T T"
       O     0.0000000000     0.0000000000     0.0000000000    -24.514156765      2.330424220     -0.000000000
       H     0.7736800000     0.0000000000     0.0000000000     19.452201850      2.103659448     -0.000000000
       H    -0.8215900000     1.0412100000     0.0000000000      5.061954915     -4.434083719     -0.000000000
