       3
Lattice="15.0 0.0 0.0 0.0 15.0 0.0 0.0 0.0 15.0" Properties=species:S:1:pos:R:3:forces:R:3 energy=        2.4534390581 pbc="T T T"
       O     0.0000000000     0.0000000000     0.0000000000      7.549609110      5.943479904     -0.000000000
       H     1.1789500000     0.0000000000     0.0000000000     -4.842883453     -1.281468760     -0.000000000
       H     0.3896000000     1.2292000000     0.0000000000     -2.706725657     -4.662011145     -0.000000000
