       3
Lattice="15.0 0.0 0.0 0.0 15.0 0.0 0.0 0.0 15.0" Properties=species:S:1:pos:R:3:forces:R:3 energy=        3.7228300868 pbc="T T T"
       O     0.0000000000     0.0000000000     0.0000000000    -25.496797479      0.182593302     -0.000000000
       H     0.7368400000     0.0000000000     0.0000000000     28.487757851     -6.119493699     -0.000000000
       H     0.3254100000     0.8616500000     0.0000000000     -2.990960372      5.936900397     -0.000000000
