       3
Lattice="15.0 0.0 0.0 0.0 15.0 0.0 0.0 0.0 15.0" Properties=species:S:1:pos:R:3:forces:R:3 energy=        1.8661451074 pbc="T T T"
       O     0.0000000000     0.0000000000     0.0000000000      5.688713594      3.708799035     -0.000000000
       H     1.3263200000     0.0000000000     0.0000000000     -5.866112648     -0.069024434     -0.000000000
       H    -0.0770900000     1.0656300000     0.0000000000      0.177399003     -3.639774601     -0.000000000
