       3
Lattice="15.0 0.0 0.0 0.0 15.0 0.0 0.0 0.0 15.0" Properties=species:S:1:pos:R:3:forces:R:3 energy=        0.6194244940 pbc="T T T"
       O     0.0000000000     0.0000000000     0.0000000000      2.295640829     -4.085985240     -0.000000000
       H     0.9947400000     0.0000000000     0.0000000000     -0.759047501     -2.149402891     -0.000000000
       H     0.1272700000     0.8750000000     0.0000000000     -1.536593327      6.235388131     -0.000000000
