       3
Lattice="15.0 0.0 0.0 0.0 15.0 0.0 0.0 0.0 15.0" Properties=species:S:1:pos:R:3:forces:R:3 energy=        4.7641983403 pbc="T T T"
       O     0.0000000000     0.0000000000     0.0000000000    -28.420070803     -9.913641521     -0.000000000
       H     0.7368400000     0.0000000000     0.0000000000     28.840127088     -7.009304484     -0.000000000
       H     0.2863700000     0.7582600000     0.0000000000     -0.420056286     16.922945953     -0.000000000
