       3
Lattice="15.0 0.0 0.0 0.0 15.0 0.0 0.0 0.0 15.0" Properties=species:S:1:pos:R:3:forces:R:3 energy=        6.4781367425 pbc="T T T"
       O     0.0000000000     0.0000000000     0.0000000000    -23.180087221    -30.429615952     -0.000000000
       H     0.8473700000     0.0000000000     0.0000000000     12.423958560     -8.303245670     -0.000000000
       H     0.3500000000     0.6062200000     0.0000000000     10.756128609     38.732861571     -0.000000000
