       3
Lattice="15.0 0.0 0.0 0.0 15.0 0.0 0.0 0.0 15.0" Properties=species:S:1:pos:R:3:forces:R:3 energy=        1.6055922279 pbc="T T T"
       O     0.0000000000     0.0000000000     0.0000000000     -4.380380959     -0.885654337     -0.000000000
       H     0.8842100000     0.0000000000     0.0000000000      7.040082300     -5.014548327     -0.000000000
       H     0.3715800000     0.8427700000     0.0000000000     -2.659701289      5.900202664     -0.000000000
