       3
Lattice="15.0 0.0 0.0 0.0 15.0 0.0 0.0 0.0 15.0" Properties=species:S:1:pos:R:3:forces:R:3 energy=        1.5714999368 pbc="T T T"
       O     0.0000000000     0.0000000000     0.0000000000      5.042985101      6.294336098     -0.000000000
       H     1.0684200000     0.0000000000     0.0000000000     -3.392337275     -1.026052526     -0.000000000
       H     0.1803000000     1.2395900000     0.0000000000     -1.650647877     -5.268283573     -0.000000000
