       3
Lattice="15.0 0.0 0.0 0.0 15.0 0.0 0.0 0.0 15.0" Properties=species:S:1:pos:R:3:forces:R:3 energy=        1.1105719430 pbc="T T T"
       O     0.0000000000     0.0000000000     0.0000000000     -6.910114774      0.604581361     -0.000000000
       H     0.9210500000     0.0000000000     0.0000000000      1.777715455      1.918619174     -0.000000000
       H    -0.8160100000     0.7454800000     0.0000000000      5.132399318     -2.523200535     -0.000000000
