       3
Lattice="15.0 0.0 0.0 0.0 15.0 0.0 0.0 0.0 15.0" Properties=species:S:1:pos:R:3:forces:R:3 energy=        1.3023826273 pbc="T T T"
       O     0.0000000000     0.0000000000     0.0000000000     -6.686716862      5.140583195     -0.000000000
       H     0.8473700000     0.0000000000     0.0000000000      9.770829682     -3.131596490     -0.000000000
       H     0.2672000000     1.0344700000     0.0000000000     -3.084112820     -2.008986654     -0.000000000
