       3
Lattice="15.0 0.0 0.0 0.0 15.0 0.0 0.0 0.0 15.0" Properties=species:S:1:pos:R:3:forces:R:3 energy=        2.2889539959 pbc="T T T"
       O     0.0000000000     0.0000000000     0.0000000000      3.033485667    -12.465575433     -0.000000000
       H     1.1789500000     0.0000000000     0.0000000000     -4.288497968     -2.230059670     -0.000000000
       H     0.2448900000     0.7726500000     0.0000000000      1.255012301     14.695635102     -0.000000000
