       3
Lattice="15.0 0.0 0.0 0.0 15.0 0.0 0.0 0.0 15.0" Properties=species:S:1:pos:R:3:forces:R:3 energy=        2.0664387210 pbc="T T T"
       O     0.0000000000     0.0000000000     0.0000000000      2.944837690      6.297116182     -0.000000000
       H     0.9947400000     0.0000000000     0.0000000000     -1.021714661     -1.207407635     -0.000000000
       H     0.2689600000     1.3363600000     0.0000000000     -1.923123029     -5.089708598     -0.000000000
