       3
Lattice="15.0 0.0 0.0 0.0 15.0 0.0 0.0 0.0 15.0" Properties=species:S:1:pos:R:3:forces:R:3 energy=        1.4861777789 pbc="T T T"
       O     0.0000000000     0.0000000000     0.0000000000     -0.831780033      1.138036411     -0.000000000
       H     1.0684200000     0.0000000000     0.0000000000     -4.316294074      1.757472791     -0.000000000
       H    -0.8002700000     0.8148500000     0.0000000000      5.148074108     -2.895509201     -0.000000000
