       3
Lattice="15.0 0.0 0.0 0.0 15.0 0.0 0.0 0.0 15.0" Properties=species:S:1:pos:R:3:forces:R:3 energy=        1.0165934785 pbc="T T T"
       O     0.0000000000     0.0000000000     0.0000000000    -12.348265762      1.215643551     -0.000000000
       H     0.8473700000     0.0000000000     0.0000000000      8.403985499      1.658968794     -0.000000000
       H    -0.6618300000     0.8387500000     0.0000000000      3.944280262     -2.874612345     -0.000000000
