       3
Lattice="15.0 0.0 0.0 0.0 15.0 0.0 0.0 0.0 15.0" Properties=species:S:1:pos:R:3:forces:R:3 energy=        1.9952127113 pbc="T T T"
       O     0.0000000000     0.0000000000     0.0000000000      7.820557231      5.405941324     -0.000000000
       H     1.1789500000     0.0000000000     0.0000000000     -4.601730214     -1.702961521     -0.000000000
       H     0.4165300000     1.1029200000     0.0000000000     -3.218827016     -3.702979803     -0.000000000
