       3
Lattice="15.0 0.0 0.0 0.0 15.0 0.0 0.0 0.0 15.0" Properties=species:S:1:pos:R:3:forces:R:3 energy=        1.8045805194 pbc="T T T"
       O     0.0000000000     0.0000000000     0.0000000000      6.295858038     -3.865676202     -0.000000000
       H     1.2894700000     0.0000000000     0.0000000000     -6.395471620      1.106636747     -0.000000000
       H    -0.4890200000     0.7805100000     0.0000000000      0.099613582      2.759039455     -0.000000000
