       3
Lattice="15.0 0.0 0.0 0.0 15.0 0.0 0.0 0.0 15.0" Properties=species:S:1:pos:R:3:forces:R:3 energy=        5.6840207967 pbc="T T T"
       O     0.0000000000     0.0000000000     0.0000000000    -39.265968853      4.994593369     -0.000000000
       H     0.7000000000     0.0000000000     0.0000000000     37.141756768      0.781447220     -0.000000000
       H    -0.3988300000     1.3419900000     0.0000000000      2.124212033     -5.776040589     -0.000000000
