       3
Lattice="15.0 0.0 0.0 0.0 15.0 0.0 0.0 0.0 15.0" Properties=species:S:1:pos:R:3:forces:R:3 energy=        1.2715520508 pbc="T T T"
       O     0.0000000000     0.0000000000     0.0000000000     -0.180647850     -3.825891499     -0.000000000
       H     0.9578900000     0.0000000000     0.0000000000      1.825658324     -3.959696810     -0.000000000
       H     0.3124000000     0.8271900000     0.0000000000     -1.645010423      7.785588309     -0.000000000
