       3
Lattice="15.0 0.0 0.0 0.0 15.0 0.0 0.0 0.0 15.0" Properties=species:S:1:pos:R:3:forces:R:3 energy=        1.2219025913 pbc="T T T"
       O     0.0000000000     0.0000000000     0.0000000000      4.918518556      3.517955933     -0.000000000
       H     1.2157900000     0.0000000000     0.0000000000     -5.785749593      0.168044708     -0.000000000
       H    -0.1918600000     1.0510500000     0.0000000000      0.867231037     -3.686000641     -0.000000000
