       3
Lattice="15.0 0.0 0.0 0.0 15.0 0.0 0.0 0.0 15.0" Properties=species:S:1:pos:R:3:forces:R:3 energy=        4.8414375166 pbc="T T T"
       O     0.0000000000     0.0000000000     0.0000000000     -5.908611718    -18.051915364     -0.000000000
       H     0.7368400000     0.0000000000     0.0000000000     25.786521039      1.562957689     -0.000000000
       H    -0.5945500000     0.4352500000     0.0000000000    -19.877909320     16.488957675     -0.000000000
