       3
Lattice="15.0 0.0 0.0 0.0 15.0 0.0 0.0 0.0 15.0" Properties=species:S:1:pos:R:3:forces:R:3 energy=        1.0163669056 pbc="T T T"
       O     0.0000000000     0.0000000000     0.0000000000     -6.736995785      0.937651375     -0.000000000
       H     0.9210500000     0.0000000000     0.0000000000      1.831098421      1.853394473     -0.000000000
       H    -0.7744500000     0.7885600000     0.0000000000      4.905897364     -2.791045848     -0.000000000
