       3
Lattice="15.0 0.0 0.0 0.0 15.0 0.0 0.0 0.0 15.0" Properties=species:S:1:pos:R:3:forces:R:3 energy=        2.3540413563 pbc="T T T"
       O     0.0000000000     0.0000000000     0.0000000000     -5.862025364      3.796164853     -0.000000000
       H     0.9210500000     0.0000000000     0.0000000000      2.472985838      1.273844201     -0.000000000
       H    -0.6106900000     1.2597900000     0.0000000000      3.389039474     -5.070009054     -0.000000000
