       3
Lattice="15.0 0.0 0.0 0.0 15.0 0.0 0.0 0.0 15.0" Properties=species:S:1:pos:R:3:forces:R:3 energy=        2.4219185233 pbc="T T T"
       O     0.0000000000     0.0000000000     0.0000000000      9.750070740    -26.064625469     -0.000000000
       H     1.0315800000     0.0000000000     0.0000000000     -3.094238755     -0.251997642     -0.000000000
       H    -0.1713700000     0.7166400000     0.0000000000     -6.655831985     26.316623111     -0.000000000
