       3
Lattice="15.0 0.0 0.0 0.0 15.0 0.0 0.0 0.0 15.0" Properties=species:S:1:pos:R:3:forces:R:3 energy=        0.4870867999 pbc="T T T"
       O     0.0000000000     0.0000000000     0.0000000000      4.941484997     -4.696653742     -0.000000000
       H     1.0684200000     0.0000000000     0.0000000000     -3.709423350     -0.695024791     -0.000000000
       H    -0.0638000000     0.8819100000     0.0000000000     -1.232061647      5.391678534     -0.000000000
