       3
Lattice="15.0 0.0 0.0 0.0 15.0 0.0 0.0 0.0 15.0" Properties=species:S:1:pos:R:3:forces:R:3 energy=        2.0081987412 pbc="T T T"
       O     0.0000000000     0.0000000000     0.0000000000      2.908179450      1.434404013     -0.000000000
       H     1.2894700000     0.0000000000     0.0000000000     -6.201678845      1.167749379     -0.000000000
       H    -0.5672700000     0.9053900000     0.0000000000      3.293499344     -2.602153391     -0.000000000
