       3
Lattice="15.0 0.0 0.0 0.0 15.0 0.0 0.0 0.0 15.0" Properties=species:S:1:pos:R:3:forces:R:3 energy=        1.6877399655 pbc="T T T"
       O     0.0000000000     0.0000000000     0.0000000000      6.979453191      5.549449314     -0.000000000
       H     1.1052600000     0.0000000000     0.0000000000     -3.635395033     -1.998920523     -0.000000000
       H     0.4165300000     1.1029200000     0.0000000000     -3.344058209     -3.550528791     -0.000000000
