       3
Lattice="15.0 0.0 0.0 0.0 15.0 0.0 0.0 0.0 15.0" Properties=species:S:1:pos:R:3:forces:R:3 energy=        1.9541228055 pbc="T T T"
       O     0.0000000000     0.0000000000     0.0000000000      9.774765837     -9.343971952     -0.000000000
       H     1.2526300000     0.0000000000     0.0000000000     -6.476242144      1.077973407     -0.000000000
       H    -0.4499000000     0.7180700000     0.0000000000     -3.298523693      8.265998544     -0.000000000
