       3
Lattice="15.0 0.0 0.0 0.0 15.0 0.0 0.0 0.0 15.0" Properties=species:S:1:pos:R:3:forces:R:3 energy=        1.2851719019 pbc="T T T"
       O     0.0000000000     0.0000000000     0.0000000000    -13.092186942      1.354297554     -0.000000000
       H     0.8473700000     0.0000000000     0.0000000000      8.408649740      1.834435612     -0.000000000
       H    -0.7306200000     0.8293300000     0.0000000000      4.683537202     -3.188733165     -0.000000000
