       3
Lattice="15.0 0.0 0.0 0.0 15.0 0.0 0.0 0.0 15.0" Properties=species:S:1:pos:R:3:forces:R:3 energy=        3.7393723509 pbc="T T T"
       O     0.0000000000     0.0000000000     0.0000000000      3.574698252      4.791674767     -0.000000000
       H     1.3631600000     0.0000000000     0.0000000000     -5.773811595      0.578199516     -0.000000000
       H    -0.3883400000     1.3066700000     0.0000000000      2.199113343     -5.369874283     -0.000000000
