       3
Lattice="15.0 0.0 0.0 0.0 15.0 0.0 0.0 0.0 15.0" Properties=species:S:1:pos:R:3:forces:R:3 energy=        3.7947222856 pbc="T T T"
       O     0.0000000000     0.0000000000     0.0000000000     18.604375709    -16.860034834     -0.000000000
       H     1.3263200000     0.0000000000     0.0000000000     -6.706131786      1.376707608     -0.000000000
       H    -0.5421100000     0.5519900000     0.0000000000    -11.898243923     15.483327226     -0.000000000
