       3
Lattice="15.0 0.0 0.0 0.0 15.0 0.0 0.0 0.0 15.0" Properties=species:S:1:pos:R:3:forces:R:3 energy=        9.2075497100 pbc="T T T"
       O     0.0000000000     0.0000000000     0.0000000000    -46.288872010    -30.185823218     -0.000000000
       H     0.7000000000     0.0000000000     0.0000000000     39.206406186     -9.550015011     -0.000000000
       H     0.2824000000     0.6405100000     0.0000000000      7.082465876     39.735838229     -0.000000000
