       3
Lattice="15.0 0.0 0.0 0.0 15.0 0.0 0.0 0.0 15.0" Properties=species:S:1:pos:R:3:forces:R:3 energy=        2.4764806938 pbc="T T T"
       O     0.0000000000     0.0000000000     0.0000000000      4.989213590     -3.054946161     -0.000000000
       H     1.3263200000     0.0000000000     0.0000000000     -6.436570724      1.522269962     -0.000000000
       H    -0.7072000000     0.6460800000     0.0000000000      1.447357134      1.532676198     -0.000000000
