       3
Lattice="15.0 0.0 0.0 0.0 15.0 0.0 0.0 0.0 15.0" Properties=species:S:1:pos:R:3:forces:R:3 energy=        3.4969666168 pbc="T T T"
       O     0.0000000000     0.0000000000     0.0000000000      0.104306928      1.012143468     -0.000000000
       H     1.1789500000     0.0000000000     0.0000000000     -5.518504993      1.811733891     -0.000000000
       H    -1.0064100000     0.9194200000     0.0000000000      5.414198117     -2.823877308     -0.000000000
