       3
Lattice="15.0 0.0 0.0 0.0 15.0 0.0 0.0 0.0 15.0" Properties=species:S:1:pos:R:3:forces:R:3 energy=        3.5115085094 pbc="T T T"
       O     0.0000000000     0.0000000000     0.0000000000      7.076318108      5.884009438     -0.000000000
       H     1.4000000000     0.0000000000     0.0000000000     -5.394780314     -0.548766439     -0.000000000
       H     0.2544200000     1.2641200000     0.0000000000     -1.681537794     -5.335242998     -0.000000000
