       3
Lattice="15.0 0.0 0.0 0.0 15.0 0.0 0.0 0.0 15.0" Properties=species:S:1:pos:R:3:forces:R:3 energy=        0.9207909940 pbc="T T T"
       O     0.0000000000     0.0000000000     0.0000000000     -8.077176742     -3.766751676     -0.000000000
       H     0.8473700000     0.0000000000     0.0000000000      7.970245488      1.720486888     -0.000000000
       H    -0.6800000000     0.6212300000     0.0000000000      0.106931203      2.046264839     -0.000000000
