       3
Lattice="15.0 0.0 0.0 0.0 15.0 0.0 0.0 0.0 15.0" Properties=species:S:1:pos:R:3:forces:R:3 energy=        2.6724264258 pbc="T T T"
       O     0.0000000000     0.0000000000     0.0000000000     -7.137598170      2.124982028     -0.000000000
       H     0.9210500000     0.0000000000     0.0000000000      2.384539179      1.890644273     -0.000000000
       H    -0.8672300000     1.0990500000     0.0000000000      4.753058990     -4.015626300     -0.000000000
