       3
Lattice="15.0 0.0 0.0 0.0 15.0 0.0 0.0 0.0 15.0" Properties=species:S:1:pos:R:3:forces:R:3 energy=        3.8677352615 pbc="T T T"
       O     0.0000000000     0.0000000000     0.0000000000     22.970098699    -32.691001957     -0.000000000
       H     1.0684200000     0.0000000000     0.0000000000     -4.749881671      0.931814351     -0.000000000
       H    -0.3716600000     0.5931900000     0.0000000000    -18.220217028     31.759187554     -0.000000000
