       3
Lattice="15.0 0.0 0.0 0.0 15.0 0.0 0.0 0.0 15.0" Properties=species:S:1:pos:R:3:forces:R:3 energy=        2.0184502962 pbc="T T T"
       O     0.0000000000     0.0000000000     0.0000000000      1.995854224    -18.178110978     -0.000000000
       H     1.0315800000     0.0000000000     0.0000000000     -1.996669315     -2.199137614     -0.000000000
       H     0.1113600000     0.7656200000     0.0000000000      0.000815040     20.377248643     -0.000000000
