       3
Lattice="15.0 0.0 0.0 0.0 15.0 0.0 0.0 0.0 15.0" Properties=species:S:1:pos:R:3:forces:R:3 energy=        0.2625472891 pbc="T T T"
       O     0.0000000000     0.0000000000     0.0000000000     -0.444776837     -5.311997078     -0.000000000
       H     0.9210500000     0.0000000000     0.0000000000      1.902241753      0.680470849     -0.000000000
       H    -0.3857000000     0.7956500000     0.0000000000     -1.457464916      4.631526177     -0.000000000
