       3
Lattice="15.0 0.0 0.0 0.0 15.0 0.0 0.0 0.0 15.0" Properties=species:S:1:pos:R:3:forces:R:3 energy=        4.2352943532 pbc="T T T"
       O     0.0000000000     0.0000000000     0.0000000000      1.132693707      2.336819122     -0.000000000
       H     1.3631600000     0.0000000000     0.0000000000     -5.685618447      1.313203181     -0.000000000
       H    -0.8444100000     1.0701300000     0.0000000000      4.552924740     -3.650022303     -0.000000000
