       3
Lattice="15.0 0.0 0.0 0.0 15.0 0.0 0.0 0.0 15.0" Properties=species:S:1:pos:R:3:forces:R:3 energy=        0.4743866420 pbc="T T T"
       O     0.0000000000     0.0000000000     0.0000000000     -3.773454956     -4.056267233     -0.000000000
       H     0.8842100000     0.0000000000     0.0000000000      5.489241969     -1.323171558     -0.000000000
       H    -0.0638000000     0.8819100000     0.0000000000     -1.715787012      5.379438791     -0.000000000
