       3
Lattice="15.0 0.0 0.0 0.0 15.0 0.0 0.0 0.0 15.0" Properties=species:S:1:pos:R:3:forces:R:3 energy=        3.1474881823 pbc="T T T"
       O     0.0000000000     0.0000000000     0.0000000000     14.510506743    -26.177589511     -0.000000000
       H     1.1789500000     0.0000000000     0.0000000000     -5.993137854      0.404801203     -0.000000000
       H    -0.2478400000     0.6939100000     0.0000000000     -8.517368888     25.772788256     -0.000000000
