       3
Lattice="15.0 0.0 0.0 0.0 15.0 0.0 0.0 0.0 15.0" Properties=species:S:1:pos:R:3:forces:R:3 energy=        3.1515749488 pbc="T T T"
       O     0.0000000000     0.0000000000     0.0000000000      0.466182104      1.525770983     -0.000000000
       H     1.2157900000     0.0000000000     0.0000000000     -5.828363797      1.677238805     -0.000000000
       H    -0.9035200000     0.9199900000     0.0000000000      5.362181693     -3.203009788     -0.000000000
