       3
Lattice="15.0 0.0 0.0 0.0 15.0 0.0 0.0 0.0 15.0" Properties=species:S:1:pos:R:3:forces:R:3 energy=        1.8084337633 pbc="T T T"
       O     0.0000000000     0.0000000000     0.0000000000      3.493578315     -4.437878463     -0.000000000
       H     1.1052600000     0.0000000000     0.0000000000     -2.592097545     -3.524973865     -0.000000000
       H     0.4000000000     0.7885600000     0.0000000000     -0.901480770      7.962852277     -0.000000000
