       3
Lattice="15.0 0.0 0.0 0.0 15.0 0.0 0.0 0.0 15.0" Properties=species:S:1:pos:R:3:forces:R:3 energy=        4.9720597614 pbc="T T T"
       O     0.0000000000     0.0000000000     0.0000000000     14.620824347    -36.291911384     -0.000000000
       H     1.2894700000     0.0000000000     0.0000000000     -6.284656508      0.160422463     -0.000000000
       H    -0.1628000000     0.6808100000     0.0000000000     -8.336167839     36.131488921     -0.000000000
