       3
Lattice="15.0 0.0 0.0 0.0 15.0 0.0 0.0 0.0 15.0" Properties=species:S:1:pos:R:3:forces:R:3 energy=        1.9986183551 pbc="T T T"
       O     0.0000000000     0.0000000000     0.0000000000      5.845744205     -2.140351987     -0.000000000
       H     1.2526300000     0.0000000000     0.0000000000     -4.513130523     -2.177400572     -0.000000000
       H     0.3715800000     0.8427700000     0.0000000000     -1.332613682      4.317752559     -0.000000000
