       3
Lattice="15.0 0.0 0.0 0.0 15.0 0.0 0.0 0.0 15.0" Properties=species:S:1:pos:R:3:forces:R:3 energy=        0.0801394393 pbc="T T T"
       O     0.0000000000     0.0000000000     0.0000000000     -1.617141451     -2.166509271     -0.000000000
       H     0.9210500000     0.0000000000     0.0000000000      2.197800229      0.047166190     -0.000000000
       H    -0.2623900000     0.8828800000     0.0000000000     -0.580658778      2.119343133     -0.000000000
