       3
Lattice="15.0 0.0 0.0 0.0 15.0 0.0 0.0 0.0 15.0" Properties=species:S:1:pos:R:3:forces:R:3 energy=        1.0407060182 pbc="T T T"
       O     0.0000000000     0.0000000000     0.0000000000      3.950329300      5.803811704     -0.000000000
       H     1.0684200000     0.0000000000     0.0000000000     -3.610848186     -0.480565119     -0.000000000
       H    -0.0212800000     1.1787600000     0.0000000000     -0.339481063     -5.323246585     -0.000000000
