       3
Lattice="15.0 0.0 0.0 0.0 15.0 0.0 0.0 0.0 15.0" Properties=species:S:1:pos:R:3:forces:R:3 energy=        3.0826121509 pbc="T T T"
       O     0.0000000000     0.0000000000     0.0000000000      1.111203029    -12.226660084     -0.000000000
       H     1.2526300000     0.0000000000     0.0000000000     -4.085442531     -2.633550535     -0.000000000
       H     0.3666700000     0.7228500000     0.0000000000      2.974239503     14.860210619     -0.000000000
