       3
Lattice="15.0 0.0 0.0 0.0 15.0 0.0 0.0 0.0 15.0" Properties=species:S:1:pos:R:3:forces:R:3 energy=        3.5115100958 pbc="T T T"
       O     0.0000000000     0.0000000000     0.0000000000      7.164522518      5.776142096     -0.000000000
       H     1.2894700000     0.0000000000     0.0000000000     -5.562207906     -0.595764839     -0.000000000
       H     0.2762200000     1.3724800000     0.0000000000     -1.602314560     -5.180377206     -0.000000000
