       3
Lattice="15.0 0.0 0.0 0.0 15.0 0.0 0.0 0.0 15.0" Properties=species:S:1:pos:R:3:forces:R:3 energy=        0.4631595044 pbc="T T T"
       O     0.0000000000     0.0000000000     0.0000000000      2.637282545      4.615451581     -0.000000000
       H     0.9947400000     0.0000000000     0.0000000000     -1.057190708     -1.376603427     -0.000000000
       H     0.0963200000     1.0640700000     0.0000000000     -1.580091837     -3.238848155     -0.000000000
