       3
Lattice="15.0 0.0 0.0 0.0 15.0 0.0 0.0 0.0 15.0" Properties=species:S:1:pos:R:3:forces:R:3 energy=        2.6724210597 pbc="T T T"
       O     0.0000000000     0.0000000000     0.0000000000      6.087612056     -4.285461956     -0.000000000
       H     1.4000000000     0.0000000000     0.0000000000     -6.095478504      1.243677073     -0.000000000
       H    -0.5705400000     0.7230600000     0.0000000000      0.007866448      3.041784883     -0.000000000
