       3
Lattice="15.0 0.0 0.0 0.0 15.0 0.0 0.0 0.0 15.0" Properties=species:S:1:pos:R:3:forces:R:3 energy=        1.6926534003 pbc="T T T"
       O     0.0000000000     0.0000000000     0.0000000000     -9.251955160      6.351637222     -0.000000000
       H     0.8473700000     0.0000000000     0.0000000000      9.154971817     -0.483020523     -0.000000000
       H    -0.0903900000     1.2493600000     0.0000000000      0.096983394     -5.868616698     -0.000000000
