       3
Lattice="15.0 0.0 0.0 0.0 15.0 0.0 0.0 0.0 15.0" Properties=species:S:1:pos:R:3:forces:R:3 energy=        1.9729764130 pbc="T T T"
       O     0.0000000000     0.0000000000     0.0000000000      6.068003940      6.233830556     -0.000000000
       H     1.1052600000     0.0000000000     0.0000000000     -4.083558838     -1.084299764     -0.000000000
       H     0.2544200000     1.2641200000     0.0000000000     -1.984445102     -5.149530792     -0.000000000
