       3
Lattice="15.0 0.0 0.0 0.0 15.0 0.0 0.0 0.0 15.0" Properties=species:S:1:pos:R:3:forces:R:3 energy=        1.0507892055 pbc="T T T"
       O     0.0000000000     0.0000000000     0.0000000000     -2.448579013     -0.199619875     -0.000000000
       H     0.9947400000     0.0000000000     0.0000000000     -2.277324333      1.846843042     -0.000000000
       H    -0.8266600000     0.6768700000     0.0000000000      4.725903346     -1.647223218     -0.000000000
