       3
Lattice="15.0 0.0 0.0 0.0 15.0 0.0 0.0 0.0 15.0" Properties=species:S:1:pos:R:3:forces:R:3 energy=        1.0142023623 pbc="T T T"
       O     0.0000000000     0.0000000000     0.0000000000      6.498079562      1.975810820     -0.000000000
       H     1.1789500000     0.0000000000     0.0000000000     -4.977975756     -1.171556619     -0.000000000
       H     0.1431800000     0.9843800000     0.0000000000     -1.520103858     -0.804254150     -0.000000000
