       3
Lattice="15.0 0.0 0.0 0.0 15.0 0.0 0.0 0.0 15.0" Properties=species:S:1:pos:R:3:forces:R:3 energy=        0.1643915041 pbc="T T T"
       O     0.0000000000     0.0000000000     0.0000000000      0.289937064      0.464398786     -0.000000000
       H     0.9947400000     0.0000000000     0.0000000000     -1.924916529      0.883336847     -0.000000000
       H    -0.4339100000     0.8951100000     0.0000000000      1.634979465     -1.347735632     -0.000000000
