       3
Lattice="15.0 0.0 0.0 0.0 15.0 0.0 0.0 0.0 15.0" Properties=species:S:1:pos:R:3:forces:R:3 energy=        3.3805200320 pbc="T T T"
       O     0.0000000000     0.0000000000     0.0000000000     -5.483820435    -24.487164849     -0.000000000
       H     0.9578900000     0.0000000000     0.0000000000      1.921916101     -4.011772575     -0.000000000
       H     0.2226300000     0.7024000000     0.0000000000      3.561904334     28.498937424     -0.000000000
