       3
Lattice="15.0 0.0 0.0 0.0 15.0 0.0 0.0 0.0 15.0" Properties=species:S:1:pos:R:3:forces:R:3 energy=        1.5149363961 pbc="T T T"
       O     0.0000000000     0.0000000000     0.0000000000    -18.684778256      1.055544481     -0.000000000
       H     0.7736800000     0.0000000000     0.0000000000     19.670211858     -1.189435307     -0.000000000
       H    -0.1207400000     0.9502500000     0.0000000000     -0.985433602      0.133890826     -0.000000000
