       3
Lattice="15.0 0.0 0.0 0.0 15.0 0.0 0.0 0.0 15.0" Properties=species:S:1:pos:R:3:forces:R:3 energy=        1.7804800262 pbc="T T T"
       O     0.0000000000     0.0000000000     0.0000000000      2.359767309      6.249635186     -0.000000000
       H     0.9578900000     0.0000000000     0.0000000000      1.076677931     -2.447285799     -0.000000000
       H     0.4425600000     1.1718500000     0.0000000000     -3.436445239     -3.802349336     -0.000000000
