       3
Lattice="15.0 0.0 0.0 0.0 15.0 0.0 0.0 0.0 15.0" Properties=species:S:1:pos:R:3:forces:R:3 energy=        0.5911176048 pbc="T T T"
       O     0.0000000000     0.0000000000     0.0000000000     -3.230734932      2.755488503     -0.000000000
       H     0.9578900000     0.0000000000     0.0000000000     -0.131685435      1.189805238     -0.000000000
       H    -0.5352600000     0.9670000000     0.0000000000      3.362420368     -3.945293740     -0.000000000
