       3
Lattice="15.0 0.0 0.0 0.0 15.0 0.0 0.0 0.0 15.0" Properties=species:S:1:pos:R:3:forces:R:3 energy=        2.6297181364 pbc="T T T"
       O     0.0000000000     0.0000000000     0.0000000000    -17.124191126      6.595367735     -0.000000000
       H     0.7736800000     0.0000000000     0.0000000000     20.262314107     -3.250413497     -0.000000000
       H     0.2856300000     1.1058200000     0.0000000000     -3.138123033     -3.344954239     -0.000000000
