       3
Lattice="15.0 0.0 0.0 0.0 15.0 0.0 0.0 0.0 15.0" Properties=species:S:1:pos:R:3:forces:R:3 energy=        0.5383402890 pbc="T T T"
       O     0.0000000000     0.0000000000     0.0000000000      1.196248939      3.996147511     -0.000000000
       H     1.0315800000     0.0000000000     0.0000000000     -2.954885000      0.449283366     -0.000000000
       H    -0.3148700000     1.0594600000     0.0000000000      1.758636061     -4.445430928     -0.000000000
