       3
Lattice="15.0 0.0 0.0 0.0 15.0 0.0 0.0 0.0 15.0" Properties=species:S:1:pos:R:3:forces:R:3 energy=        2.7205874960 pbc="T T T"
       O     0.0000000000     0.0000000000     0.0000000000      8.202029879      5.470452904     -0.000000000
       H     1.2894700000     0.0000000000     0.0000000000     -5.173894680     -1.272568779     -0.000000000
       H     0.4295500000     1.1373800000     0.0000000000     -3.028135198     -4.197884125     -0.000000000
