       3
Lattice="15.0 0.0 0.0 0.0 15.0 0.0 0.0 0.0 15.0" Properties=species:S:1:pos:R:3:forces:R:3 energy=        3.3936645791 pbc="T T T"
       O     0.0000000000     0.0000000000     0.0000000000      0.993264208    -12.348111444     -0.000000000
       H     1.3263200000     0.0000000000     0.0000000000     -4.315115429     -2.215893193     -0.000000000
       H     0.3666700000     0.7228500000     0.0000000000      3.321851169     14.564004586     -0.000000000
