       3
Lattice="15.0 0.0 0.0 0.0 15.0 0.0 0.0 0.0 15.0" Properties=species:S:1:pos:R:3:forces:R:3 energy=        4.3964420831 pbc="T T T"
       O     0.0000000000     0.0000000000     0.0000000000      8.152595769      5.006002902     -0.000000000
       H     1.4000000000     0.0000000000     0.0000000000     -5.034244323     -0.942994953     -0.000000000
       H     0.6333300000     1.2485500000     0.0000000000     -3.118351497     -4.063007949     -0.000000000
