       3
Lattice="15.0 0.0 0.0 0.0 15.0 0.0 0.0 0.0 15.0" Properties=species:S:1:pos:R:3:forces:R:3 energy=        7.0546038514 pbc="T T T"
       O     0.0000000000     0.0000000000     0.0000000000    -31.825533874    -32.393698987     -0.000000000
       H     0.7368400000     0.0000000000     0.0000000000     28.673266219     -6.291359634     -0.000000000
       H     0.1750600000     0.6777600000     0.0000000000      3.152267655     38.685058621     -0.000000000
