       3
Lattice="15.0 0.0 0.0 0.0 15.0 0.0 0.0 0.0 15.0" Properties=species:S:1:pos:R:3:forces:R:3 energy=        7.3206400891 pbc="T T T"
       O     0.0000000000     0.0000000000     0.0000000000    -33.528202958    -31.893503127     -0.000000000
       H     0.7368400000     0.0000000000     0.0000000000     28.950256230     -7.025361905     -0.000000000
       H     0.2115000000     0.6672800000     0.0000000000      4.577946728     38.918864980     -0.000000000
