       3
Lattice="15.0 0.0 0.0 0.0 15.0 0.0 0.0 0.0 15.0" Properties=species:S:1:pos:R:3:forces:R:3 energy=        1.1828060964 pbc="T T T"
       O     0.0000000000     0.0000000000     0.0000000000    -16.166146625      0.883355513     -0.000000000
       H     0.8105300000     0.0000000000     0.0000000000     13.090561078      1.472522281     -0.000000000
       H    -0.5942300000     0.8432400000     0.0000000000      3.075585547     -2.355877793     -0.000000000
