       3
Lattice="15.0 0.0 0.0 0.0 15.0 0.0 0.0 0.0 15.0" Properties=species:S:1:pos:R:3:forces:R:3 energy=        1.2347848179 pbc="T T T"
       O     0.0000000000     0.0000000000     0.0000000000     -4.696814488      2.238259024     -0.000000000
       H     0.9578900000     0.0000000000     0.0000000000     -0.169852811      1.699807085     -0.000000000
       H    -0.7303000000     0.9255200000     0.0000000000      4.866667248     -3.938066109     -0.000000000
