       3
Lattice="15.0 0.0 0.0 0.0 15.0 0.0 0.0 0.0 15.0" Properties=species:S:1:pos:R:3:forces:R:3 energy=        1.7630762604 pbc="T T T"
       O     0.0000000000     0.0000000000     0.0000000000      5.099340984     -1.980965421     -0.000000000
       H     1.2894700000     0.0000000000     0.0000000000     -6.346929015      1.123541656     -0.000000000
       H    -0.5085800000     0.8117300000     0.0000000000      1.247588032      0.857423817     -0.000000000
