       3
Lattice="15.0 0.0 0.0 0.0 15.0 0.0 0.0 0.0 15.0" Properties=species:S:1:pos:R:3:forces:R:3 energy=        1.1811684308 pbc="T T T"
       O     0.0000000000     0.0000000000     0.0000000000     -7.262891428      5.807991291     -0.000000000
       H     0.8473700000     0.0000000000     0.0000000000      9.492155804     -2.200070514     -0.000000000
       H     0.1590900000     1.0937500000     0.0000000000     -2.229264376     -3.607920778     -0.000000000
