       3
Lattice="15.0 0.0 0.0 0.0 15.0 0.0 0.0 0.0 15.0" Properties=species:S:1:pos:R:3:forces:R:3 energy=        3.5314505940 pbc="T T T"
       O     0.0000000000     0.0000000000     0.0000000000    -36.595837004      2.679374352     -0.000000000
       H     0.7000000000     0.0000000000     0.0000000000     36.953728460     -0.943330533     -0.000000000
       H    -0.1786300000     0.9785700000     0.0000000000     -0.357891507     -1.736043818     -0.000000000
