       3
Lattice="15.0 0.0 0.0 0.0 15.0 0.0 0.0 0.0 15.0" Properties=species:S:1:pos:R:3:forces:R:3 energy=        3.4818607274 pbc="T T T"
       O     0.0000000000     0.0000000000     0.0000000000      0.388447334      1.107639838     -0.000000000
       H     1.2526300000     0.0000000000     0.0000000000     -5.933861969      1.709337500     -0.000000000
       H    -0.9520100000     0.8697200000     0.0000000000      5.545414635     -2.816977338     -0.000000000
