       3
Lattice="15.0 0.0 0.0 0.0 15.0 0.0 0.0 0.0 15.0" Properties=species:S:1:pos:R:3:forces:R:3 energy=        1.4646351423 pbc="T T T"
       O     0.0000000000     0.0000000000     0.0000000000     -3.453382132      1.422838414     -0.000000000
       H     0.9947400000     0.0000000000     0.0000000000     -1.969004129      1.859386226     -0.000000000
       H    -0.8260800000     0.8411400000     0.0000000000      5.422386262     -3.282224640     -0.000000000
