       3
Lattice="15.0 0.0 0.0 0.0 15.0 0.0 0.0 0.0 15.0" Properties=species:S:1:pos:R:3:forces:R:3 energy=        2.6638336007 pbc="T T T"
       O     0.0000000000     0.0000000000     0.0000000000      4.123816059      4.336498532     -0.000000000
       H     1.4000000000     0.0000000000     0.0000000000     -5.781808501      0.414152464     -0.000000000
       H    -0.2656200000     1.1107900000     0.0000000000      1.657992443     -4.750650997     -0.000000000
