       3
Lattice="15.0 0.0 0.0 0.0 15.0 0.0 0.0 0.0 15.0" Properties=species:S:1:pos:R:3:forces:R:3 energy=        1.7565239818 pbc="T T T"
       O     0.0000000000     0.0000000000     0.0000000000      1.780315150      3.853669042     -0.000000000
       H     1.1421100000     0.0000000000     0.0000000000     -5.253774831      1.050123770     -0.000000000
       H    -0.5303400000     1.0940200000     0.0000000000      3.473459681     -4.903792812     -0.000000000
