       3
Lattice="15.0 0.0 0.0 0.0 15.0 0.0 0.0 0.0 15.0" Properties=species:S:1:pos:R:3:forces:R:3 energy=        0.1470219077 pbc="T T T"
       O     0.0000000000     0.0000000000     0.0000000000      2.649116104     -0.618458331     -0.000000000
       H     1.0315800000     0.0000000000     0.0000000000     -3.141072861      0.475003460     -0.000000000
       H    -0.3221900000     0.9020800000     0.0000000000      0.491956757      0.143454923     -0.000000000
