       3
Lattice="15.0 0.0 0.0 0.0 15.0 0.0 0.0 0.0 15.0" Properties=species:S:1:pos:R:3:forces:R:3 energy=        5.5459817295 pbc="T T T"
       O     0.0000000000     0.0000000000     0.0000000000     26.208451762    -32.462068252     -0.000000000
       H     1.3263200000     0.0000000000     0.0000000000     -6.667977008      1.103535687     -0.000000000
       H    -0.4032300000     0.5722000000     0.0000000000    -19.540474754     31.358532565     -0.000000000
