       3
Lattice="15.0 0.0 0.0 0.0 15.0 0.0 0.0 0.0 15.0" Properties=species:S:1:pos:R:3:forces:R:3 energy=        1.9101245686 pbc="T T T"
       O     0.0000000000     0.0000000000     0.0000000000     -9.329608580      6.339271135     -0.000000000
       H     0.8473700000     0.0000000000     0.0000000000      9.165961129     -0.403437335     -0.000000000
       H    -0.0930500000     1.2861100000     0.0000000000      0.163647451     -5.935833800     -0.000000000
