       3
Lattice="15.0 0.0 0.0 0.0 15.0 0.0 0.0 0.0 15.0" Properties=species:S:1:pos:R:3:forces:R:3 energy=        0.9250982244 pbc="T T T"
       O     0.0000000000     0.0000000000     0.0000000000      6.332249964      2.050236012     -0.000000000
       H     1.1421100000     0.0000000000     0.0000000000     -4.432660304     -1.533093386     -0.000000000
       H     0.1962700000     0.9751900000     0.0000000000     -1.899589659     -0.517142678     -0.000000000
