       3
Lattice="15.0 0.0 0.0 0.0 15.0 0.0 0.0 0.0 15.0" Properties=species:S:1:pos:R:3:forces:R:3 energy=        2.6225822879 pbc="T T T"
       O     0.0000000000     0.0000000000     0.0000000000      4.107810471      5.122852139     -0.000000000
       H     1.2894700000     0.0000000000     0.0000000000     -5.915060819      0.448729807     -0.000000000
       H    -0.2913200000     1.2182800000     0.0000000000      1.807250297     -5.571581946     -0.000000000
