       3
Lattice="15.0 0.0 0.0 0.0 15.0 0.0 0.0 0.0 15.0" Properties=species:S:1:pos:R:3:forces:R:3 energy=        1.3877090221 pbc="T T T"
       O     0.0000000000     0.0000000000     0.0000000000      0.737670568     -0.058771846     -0.000000000
       H     1.1052600000     0.0000000000     0.0000000000     -5.216360943      1.728467545     -0.000000000
       H    -0.7888100000     0.7206300000     0.0000000000      4.478690375     -1.669695647     -0.000000000
