       3
Lattice="15.0 0.0 0.0 0.0 15.0 0.0 0.0 0.0 15.0" Properties=species:S:1:pos:R:3:forces:R:3 energy=        1.7784262876 pbc="T T T"
       O     0.0000000000     0.0000000000     0.0000000000      7.490970806      2.725170863     -0.000000000
       H     1.2157900000     0.0000000000     0.0000000000     -4.495679461     -2.117399584     -0.000000000
       H     0.4161800000     0.9439000000     0.0000000000     -2.995291345     -0.607771279     -0.000000000
