       3
Lattice="15.0 0.0 0.0 0.0 15.0 0.0 0.0 0.0 15.0" Properties=species:S:1:pos:R:3:forces:R:3 energy=        1.0854708979 pbc="T T T"
       O     0.0000000000     0.0000000000     0.0000000000      5.373724615    -12.229613409     -0.000000000
       H     0.9210500000     0.0000000000     0.0000000000      1.467528425      1.255791809     -0.000000000
       H    -0.5020800000     0.6363000000     0.0000000000     -6.841253039     10.973821600     -0.000000000
