       3
Lattice="15.0 0.0 0.0 0.0 15.0 0.0 0.0 0.0 15.0" Properties=species:S:1:pos:R:3:forces:R:3 energy=        2.4919815537 pbc="T T T"
       O     0.0000000000     0.0000000000     0.0000000000    -17.111742301      6.153556050     -0.000000000
       H     0.7736800000     0.0000000000     0.0000000000     20.303038086     -3.447279822     -0.000000000
       H     0.2764100000     1.0701400000     0.0000000000     -3.191295785     -2.706276177     -0.000000000
