       3
Lattice="15.0 0.0 0.0 0.0 15.0 0.0 0.0 0.0 15.0" Properties=species:S:1:pos:R:3:forces:R:3 energy=        0.8150158059 pbc="T T T"
       O     0.0000000000     0.0000000000     0.0000000000      6.663684704     -5.993503671     -0.000000000
       H     1.1052600000     0.0000000000     0.0000000000     -5.236493564      1.107708178     -0.000000000
       H    -0.4694600000     0.7492900000     0.0000000000     -1.427191139      4.885795493     -0.000000000
