       3
Lattice="15.0 0.0 0.0 0.0 15.0 0.0 0.0 0.0 15.0" Properties=species:S:1:pos:R:3:forces:R:3 energy=        3.7630157772 pbc="T T T"
       O     0.0000000000     0.0000000000     0.0000000000      2.028680131      3.565766904     -0.000000000
       H     1.3631600000     0.0000000000     0.0000000000     -5.774273057      1.025243810     -0.000000000
       H    -0.6423100000     1.1604100000     0.0000000000      3.745592875     -4.591010715     -0.000000000
