       3
Lattice="15.0 0.0 0.0 0.0 15.0 0.0 0.0 0.0 15.0" Properties=species:S:1:pos:R:3:forces:R:3 energy=        1.7713632867 pbc="T T T"
       O     0.0000000000     0.0000000000     0.0000000000     -1.164793843      4.736521184     -0.000000000
       H     0.9947400000     0.0000000000     0.0000000000     -1.492788239      0.837256537     -0.000000000
       H    -0.4461200000     1.2490400000     0.0000000000      2.657582082     -5.573777772     -0.000000000
