       3
Lattice="15.0 0.0 0.0 0.0 15.0 0.0 0.0 0.0 15.0" Properties=species:S:1:pos:R:3:forces:R:3 energy=        0.7408665260 pbc="T T T"
       O     0.0000000000     0.0000000000     0.0000000000     -6.007569772      0.788931962     -0.000000000
       H     0.9210500000     0.0000000000     0.0000000000      1.823043768      1.719080237     -0.000000000
       H    -0.7062700000     0.8016900000     0.0000000000      4.184526004     -2.508012199     -0.000000000
