       3
Lattice="15.0 0.0 0.0 0.0 15.0 0.0 0.0 0.0 15.0" Properties=species:S:1:pos:R:3:forces:R:3 energy=        1.4455854523 pbc="T T T"
       O     0.0000000000     0.0000000000     0.0000000000     -3.217505263      2.623715033     -0.000000000
       H     0.8842100000     0.0000000000     0.0000000000      6.806661555     -4.584648980     -0.000000000
       H     0.4013100000     0.9102000000     0.0000000000     -3.589156344      1.960933947     -0.000000000
