       3
Lattice="15.0 0.0 0.0 0.0 15.0 0.0 0.0 0.0 15.0" Properties=species:S:1:pos:R:3:forces:R:3 energy=        0.9447999645 pbc="T T T"
       O     0.0000000000     0.0000000000     0.0000000000      2.610350124     -1.120688861     -0.000000000
       H     1.1052600000     0.0000000000     0.0000000000     -5.244094469      1.533195047     -0.000000000
       H    -0.6575600000     0.7464000000     0.0000000000      2.633744294     -0.412506238     -0.000000000
