       3
Lattice="15.0 0.0 0.0 0.0 15.0 0.0 0.0 0.0 15.0" Properties=species:S:1:pos:R:3:forces:R:3 energy=        3.0012244546 pbc="T T T"
       O     0.0000000000     0.0000000000     0.0000000000      5.282461208      5.651502515     -0.000000000
       H     1.3631600000     0.0000000000     0.0000000000     -5.753527999      0.053450329     -0.000000000
       H    -0.0903900000     1.2493600000     0.0000000000      0.471066842     -5.704952844     -0.000000000
