       3
Lattice="15.0 0.0 0.0 0.0 15.0 0.0 0.0 0.0 15.0" Properties=species:S:1:pos:R:3:forces:R:3 energy=        3.5528512824 pbc="T T T"
       O     0.0000000000     0.0000000000     0.0000000000     -5.258689188    -24.331054950     -0.000000000
       H     0.9947400000     0.0000000000     0.0000000000      0.441204390     -4.103041792     -0.000000000
       H     0.2603300000     0.6893200000     0.0000000000      4.817484798     28.434096743     -0.000000000
