       3
Lattice="15.0 0.0 0.0 0.0 15.0 0.0 0.0 0.0 15.0" Properties=species:S:1:pos:R:3:forces:R:3 energy=        2.7042373877 pbc="T T T"
       O     0.0000000000     0.0000000000     0.0000000000      2.609048888      5.606165049     -0.000000000
       H     0.9578900000     0.0000000000     0.0000000000      1.301069728     -2.877066927     -0.000000000
       H     0.6815800000     1.1805300000     0.0000000000     -3.910118616     -2.729098122     -0.000000000
