       3
Lattice="15.0 0.0 0.0 0.0 15.0 0.0 0.0 0.0 15.0" Properties=species:S:1:pos:R:3:forces:R:3 energy=        3.7403683883 pbc="T T T"
       O     0.0000000000     0.0000000000     0.0000000000    -16.900382249      6.892159466     -0.000000000
       H     0.7736800000     0.0000000000     0.0000000000     20.264089198     -3.094120792     -0.000000000
       H     0.4686000000     1.2407800000     0.0000000000     -3.363706948     -3.798038674     -0.000000000
