       3
Lattice="15.0 0.0 0.0 0.0 15.0 0.0 0.0 0.0 15.0" Properties=species:S:1:pos:R:3:forces:R:3 energy=        1.5591535487 pbc="T T T"
       O     0.0000000000     0.0000000000     0.0000000000      7.222493414      5.287053406     -0.000000000
       H     1.1421100000     0.0000000000     0.0000000000     -4.297200179     -1.706834324     -0.000000000
       H     0.3450800000     1.0887300000     0.0000000000     -2.925293286     -3.580219133     -0.000000000
