       3
Lattice="15.0 0.0 0.0 0.0 15.0 0.0 0.0 0.0 15.0" Properties=species:S:1:pos:R:3:forces:R:3 energy=        1.7621894604 pbc="T T T"
       O     0.0000000000     0.0000000000     0.0000000000    -18.014247965      1.016700956     -0.000000000
       H     0.8105300000     0.0000000000     0.0000000000     13.044472593      1.975786446     -0.000000000
       H    -0.7744500000     0.7885600000     0.0000000000      4.969775373     -2.992487402     -0.000000000
