       3
Lattice="15.0 0.0 0.0 0.0 15.0 0.0 0.0 0.0 15.0" Properties=species:S:1:pos:R:3:forces:R:3 energy=        2.2428248434 pbc="T T T"
       O     0.0000000000     0.0000000000     0.0000000000      7.529607923      2.234676293     -0.000000000
       H     1.2526300000     0.0000000000     0.0000000000     -4.254712834     -2.406315251     -0.000000000
       H     0.5157900000     0.8933700000     0.0000000000     -3.274895090      0.171639009     -0.000000000
