       3
Lattice="15.0 0.0 0.0 0.0 15.0 0.0 0.0 0.0 15.0" Properties=species:S:1:pos:R:3:forces:R:3 energy=        3.0590857607 pbc="T T T"
       O     0.0000000000     0.0000000000     0.0000000000     11.571949901    -19.357221192     -0.000000000
       H     0.8473700000     0.0000000000     0.0000000000      7.521366865      1.497717869     -0.000000000
       H    -0.5701100000     0.4668000000     0.0000000000    -19.093316766     17.859503323     -0.000000000
