       3
Lattice="15.0 0.0 0.0 0.0 15.0 0.0 0.0 0.0 15.0" Properties=species:S:1:pos:R:3:forces:R:3 energy=        2.8046799823 pbc="T T T"
       O     0.0000000000     0.0000000000     0.0000000000      5.643504786      5.371718948     -0.000000000
       H     1.4000000000     0.0000000000     0.0000000000     -5.627910113     -0.093361325     -0.000000000
       H    -0.0212800000     1.1787600000     0.0000000000     -0.015594674     -5.278357623     -0.000000000
