       3
Lattice="15.0 0.0 0.0 0.0 15.0 0.0 0.0 0.0 15.0" Properties=species:S:1:pos:R:3:forces:R:3 energy=        0.9016071954 pbc="T T T"
       O     0.0000000000     0.0000000000     0.0000000000      5.086249846     -4.452826144     -0.000000000
       H     1.1052600000     0.0000000000     0.0000000000     -3.921716713     -1.621363924     -0.000000000
       H     0.1272700000     0.8750000000     0.0000000000     -1.164533133      6.074190069     -0.000000000
