       3
Lattice="15.0 0.0 0.0 0.0 15.0 0.0 0.0 0.0 15.0" Properties=species:S:1:pos:R:3:forces:R:3 energy=        5.2138803010 pbc="T T T"
       O     0.0000000000     0.0000000000     0.0000000000    -37.358431396      6.562122481     -0.000000000
       H     0.7000000000     0.0000000000     0.0000000000     37.220156580     -0.559352704     -0.000000000
       H    -0.0957000000     1.3228600000     0.0000000000      0.138274765     -6.002769777     -0.000000000
