       3
Lattice="15.0 0.0 0.0 0.0 15.0 0.0 0.0 0.0 15.0" Properties=species:S:1:pos:R:3:forces:R:3 energy=        2.0896795902 pbc="T T T"
       O     0.0000000000     0.0000000000     0.0000000000      5.697963348      5.279980298     -0.000000000
       H     1.0315800000     0.0000000000     0.0000000000     -1.407987201     -3.085486098     -0.000000000
       H     0.6079000000     1.0529100000     0.0000000000     -4.289976147     -2.194494251     -0.000000000
