       3
Lattice="15.0 0.0 0.0 0.0 15.0 0.0 0.0 0.0 15.0" Properties=species:S:1:pos:R:3:forces:R:3 energy=        2.0948055215 pbc="T T T"
       O     0.0000000000     0.0000000000     0.0000000000     -5.376260084      6.249448576     -0.000000000
       H     0.8842100000     0.0000000000     0.0000000000      5.571291309     -0.461713884     -0.000000000
       H    -0.0246100000     1.3629400000     0.0000000000     -0.195031225     -5.787734691     -0.000000000
