       3
Lattice="15.0 0.0 0.0 0.0 15.0 0.0 0.0 0.0 15.0" Properties=species:S:1:pos:R:3:forces:R:3 energy=        2.3979918645 pbc="T T T"
       O     0.0000000000     0.0000000000     0.0000000000      4.060537992      5.446808102     -0.000000000
       H     1.1789500000     0.0000000000     0.0000000000     -5.403046723      0.320640010     -0.000000000
       H    -0.2381700000     1.3047600000     0.0000000000      1.342508680     -5.767448112     -0.000000000
