       3
Lattice="15.0 0.0 0.0 0.0 15.0 0.0 0.0 0.0 15.0" Properties=species:S:1:pos:R:3:forces:R:3 energy=        7.0514519647 pbc="T T T"
       O     0.0000000000     0.0000000000     0.0000000000    -34.807646819    -21.378522870     -0.000000000
       H     0.7368400000     0.0000000000     0.0000000000     29.770381396     -9.456927457     -0.000000000
       H     0.3333300000     0.6571300000     0.0000000000      5.037265423     30.835450328     -0.000000000
