       3
Lattice="15.0 0.0 0.0 0.0 15.0 0.0 0.0 0.0 15.0" Properties=species:S:1:pos:R:3:forces:R:3 energy=        4.0841519587 pbc="T T T"
       O     0.0000000000     0.0000000000     0.0000000000     16.714817573    -17.886631148     -0.000000000
       H     1.4000000000     0.0000000000     0.0000000000     -6.303957737      1.196713641     -0.000000000
       H    -0.4792500000     0.6073700000     0.0000000000    -10.410859785     16.689917559     -0.000000000
