       3
Lattice="15.0 0.0 0.0 0.0 15.0 0.0 0.0 0.0 15.0" Properties=species:S:1:pos:R:3:forces:R:3 energy=        2.0861557702 pbc="T T T"
       O     0.0000000000     0.0000000000     0.0000000000      3.582999114      3.880593236     -0.000000000
       H     1.2894700000     0.0000000000     0.0000000000     -6.041881417      0.689463493     -0.000000000
       H    -0.3841600000     1.0755600000     0.0000000000      2.458882302     -4.570056728     -0.000000000
