       3
Lattice="15.0 0.0 0.0 0.0 15.0 0.0 0.0 0.0 15.0" Properties=species:S:1:pos:R:3:forces:R:3 energy=        4.1385693918 pbc="T T T"
       O     0.0000000000     0.0000000000     0.0000000000      1.575489920      2.641636504     -0.000000000
       H     1.3263200000     0.0000000000     0.0000000000     -5.768618942      1.251061851     -0.000000000
       H    -0.8064500000     1.1443900000     0.0000000000      4.193129022     -3.892698304     -0.000000000
