       3
Lattice="15.0 0.0 0.0 0.0 15.0 0.0 0.0 0.0 15.0" Properties=species:S:1:pos:R:3:forces:R:3 energy=        1.2414854339 pbc="T T T"
       O     0.0000000000     0.0000000000     0.0000000000      1.507841233     -0.708099577     -0.000000000
       H     1.1052600000     0.0000000000     0.0000000000     -5.285942586      1.696970385     -0.000000000
       H    -0.7616100000     0.6957800000     0.0000000000      3.778101353     -0.988870808     -0.000000000
