       3
Lattice="15.0 0.0 0.0 0.0 15.0 0.0 0.0 0.0 15.0" Properties=species:S:1:pos:R:3:forces:R:3 energy=        2.2009590594 pbc="T T T"
       O     0.0000000000     0.0000000000     0.0000000000     -0.607371112      6.420829240     -0.000000000
       H     0.9210500000     0.0000000000     0.0000000000      2.999435503     -1.668937377     -0.000000000
       H     0.3409100000     1.3198400000     0.0000000000     -2.392064391     -4.751891863     -0.000000000
