       3
Lattice="15.0 0.0 0.0 0.0 15.0 0.0 0.0 0.0 15.0" Properties=species:S:1:pos:R:3:forces:R:3 energy=        3.2433595279 pbc="T T T"
       O     0.0000000000     0.0000000000     0.0000000000    -31.571275871      2.126509572     -0.000000000
       H     0.7368400000     0.0000000000     0.0000000000     26.827866493      1.902956263     -0.000000000
       H    -0.7074800000     0.8966000000     0.0000000000      4.743409327     -4.029465835     -0.000000000
