       3
Lattice="15.0 0.0 0.0 0.0 15.0 0.0 0.0 0.0 15.0" Properties=species:S:1:pos:R:3:forces:R:3 energy=        2.8841768682 pbc="T T T"
       O     0.0000000000     0.0000000000     0.0000000000    -10.828998901      0.982281479     -0.000000000
       H     0.8842100000     0.0000000000     0.0000000000      5.097614333      2.264321589     -0.000000000
       H    -1.0064100000     0.9194200000     0.0000000000      5.731384568     -3.246603068     -0.000000000
