       3
Lattice="15.0 0.0 0.0 0.0 15.0 0.0 0.0 0.0 15.0" Properties=species:S:1:pos:R:3:forces:R:3 energy=        1.1048858517 pbc="T T T"
       O     0.0000000000     0.0000000000     0.0000000000     -4.684777554      1.609407466     -0.000000000
       H     0.9578900000     0.0000000000     0.0000000000     -0.275534560      1.772357377     -0.000000000
       H    -0.7549800000     0.8569800000     0.0000000000      4.960312114     -3.381764894     -0.000000000
