       3
Lattice="15.0 0.0 0.0 0.0 15.0 0.0 0.0 0.0 15.0" Properties=species:S:1:pos:R:3:forces:R:3 energy=        2.8670834347 pbc="T T T"
       O     0.0000000000     0.0000000000     0.0000000000      8.525094954    -21.916835713     -0.000000000
       H     0.8473700000     0.0000000000     0.0000000000      7.770892185      1.247977811     -0.000000000
       H    -0.4870800000     0.5528900000     0.0000000000    -16.295987139     20.668857902     -0.000000000
