       3
Lattice="15.0 0.0 0.0 0.0 15.0 0.0 0.0 0.0 15.0" Properties=species:S:1:pos:R:3:forces:R:3 energy=        1.2577527433 pbc="T T T"
       O     0.0000000000     0.0000000000     0.0000000000      5.473312897      5.957213664     -0.000000000
       H     1.0684200000     0.0000000000     0.0000000000     -3.255626308     -1.408727113     -0.000000000
       H     0.2326100000     1.1557700000     0.0000000000     -2.217686641     -4.548486602     -0.000000000
