       3
Lattice="15.0 0.0 0.0 0.0 15.0 0.0 0.0 0.0 15.0" Properties=species:S:1:pos:R:3:forces:R:3 energy=        2.1391401592 pbc="T T T"
       O     0.0000000000     0.0000000000     0.0000000000     -6.718400736    -11.248170521     -0.000000000
       H     0.8842100000     0.0000000000     0.0000000000      6.872282772     -4.494558974     -0.000000000
       H     0.2448900000     0.7726500000     0.0000000000     -0.153882037     15.742729443     -0.000000000
