       3
Lattice="15.0 0.0 0.0 0.0 15.0 0.0 0.0 0.0 15.0" Properties=species:S:1:pos:R:3:forces:R:3 energy=        3.2731258100 pbc="T T T"
       O     0.0000000000     0.0000000000     0.0000000000    -26.303816286      6.794582250     -0.000000000
       H     0.7368400000     0.0000000000     0.0000000000     27.525318921     -1.656352695     -0.000000000
       H     0.0425600000     1.1781800000     0.0000000000     -1.221502635     -5.138229555     -0.000000000
