       3
Lattice="15.0 0.0 0.0 0.0 15.0 0.0 0.0 0.0 15.0" Properties=species:S:1:pos:R:3:forces:R:3 energy=        2.4918265331 pbc="T T T"
       O     0.0000000000     0.0000000000     0.0000000000     -7.773202785      6.615361620     -0.000000000
       H     0.8473700000     0.0000000000     0.0000000000      9.381908494     -1.339270785     -0.000000000
       H     0.1962100000     1.3489600000     0.0000000000     -1.608705709     -5.276090834     -0.000000000
