       3
Lattice="15.0 0.0 0.0 0.0 15.0 0.0 0.0 0.0 15.0" Properties=species:S:1:pos:R:3:forces:R:3 energy=        2.5530073563 pbc="T T T"
       O     0.0000000000     0.0000000000     0.0000000000     -0.694916548      1.546899394     -0.000000000
       H     1.1052600000     0.0000000000     0.0000000000     -4.772688395      1.808305170     -0.000000000
       H    -0.9035200000     0.9199900000     0.0000000000      5.467604891     -3.355204615     -0.000000000
