       3
Lattice="15.0 0.0 0.0 0.0 15.0 0.0 0.0 0.0 15.0" Properties=species:S:1:pos:R:3:forces:R:3 energy=        2.5132872526 pbc="T T T"
       O     0.0000000000     0.0000000000     0.0000000000    -19.743766218      6.463824636     -0.000000000
       H     0.7736800000     0.0000000000     0.0000000000     19.789907360     -0.723259528     -0.000000000
       H    -0.0877300000     1.2126200000     0.0000000000     -0.046141142     -5.740565108     -0.000000000
