       3
Lattice="15.0 0.0 0.0 0.0 15.0 0.0 0.0 0.0 15.0" Properties=species:S:1:pos:R:3:forces:R:3 energy=        1.2073431555 pbc="T T T"
       O     0.0000000000     0.0000000000     0.0000000000     -7.055465372      0.298125826     -0.000000000
       H     0.9210500000     0.0000000000     0.0000000000      1.723260287      1.958463321     -0.000000000
       H    -0.8551700000     0.7002000000     0.0000000000      5.332205136     -2.256589199     -0.000000000
