       3
Lattice="15.0 0.0 0.0 0.0 15.0 0.0 0.0 0.0 15.0" Properties=species:S:1:pos:R:3:forces:R:3 energy=        0.5321321011 pbc="T T T"
       O     0.0000000000     0.0000000000     0.0000000000      5.350768509     -1.887032437     -0.000000000
       H     1.1052600000     0.0000000000     0.0000000000     -4.357858085     -0.787055621     -0.000000000
       H    -0.0166300000     0.9209000000     0.0000000000     -0.992910425      2.674088058     -0.000000000
