       3
Lattice="15.0 0.0 0.0 0.0 15.0 0.0 0.0 0.0 15.0" Properties=species:S:1:pos:R:3:forces:R:3 energy=        0.7348036115 pbc="T T T"
       O     0.0000000000     0.0000000000     0.0000000000      2.578625215     -4.041678838     -0.000000000
       H     0.9947400000     0.0000000000     0.0000000000     -2.553999949      1.678532687     -0.000000000
       H    -0.7126400000     0.5835000000     0.0000000000     -0.024625266      2.363146151     -0.000000000
