       3
Lattice="15.0 0.0 0.0 0.0 15.0 0.0 0.0 0.0 15.0" Properties=species:S:1:pos:R:3:forces:R:3 energy=        2.7427003281 pbc="T T T"
       O     0.0000000000     0.0000000000     0.0000000000      3.586741408     -1.916627545     -0.000000000
       H     1.3631600000     0.0000000000     0.0000000000     -6.221448169      1.513796579     -0.000000000
       H    -0.7344100000     0.6709300000     0.0000000000      2.634706761      0.402830966     -0.000000000
