       3
Lattice="15.0 0.0 0.0 0.0 15.0 0.0 0.0 0.0 15.0" Properties=species:S:1:pos:R:3:forces:R:3 energy=        2.1431666416 pbc="T T T"
       O     0.0000000000     0.0000000000     0.0000000000     -8.771837208     -3.210758120     -0.000000000
       H     0.8473700000     0.0000000000     0.0000000000     10.790539910     -5.663086266     -0.000000000
       H     0.3567200000     0.8090600000     0.0000000000     -2.018702754      8.873844385     -0.000000000
