       3
Lattice="15.0 0.0 0.0 0.0 15.0 0.0 0.0 0.0 15.0" Properties=species:S:1:pos:R:3:forces:R:3 energy=        3.0831899820 pbc="T T T"
       O     0.0000000000     0.0000000000     0.0000000000     -4.022754533      0.474076268     -0.000000000
       H     0.9947400000     0.0000000000     0.0000000000     -1.632079619      2.166506186     -0.000000000
       H    -1.0832200000     0.8869300000     0.0000000000      5.654834152     -2.640582454     -0.000000000
