       3
Lattice="15.0 0.0 0.0 0.0 15.0 0.0 0.0 0.0 15.0" Properties=species:S:1:pos:R:3:forces:R:3 energy=        1.3934626547 pbc="T T T"
       O     0.0000000000     0.0000000000     0.0000000000      7.866682175     -6.279048055     -0.000000000
       H     1.1789500000     0.0000000000     0.0000000000     -6.219245093      1.329500280     -0.000000000
       H    -0.5477200000     0.6941400000     0.0000000000     -1.647437031      4.949547774     -0.000000000
