       3
Lattice="15.0 0.0 0.0 0.0 15.0 0.0 0.0 0.0 15.0" Properties=species:S:1:pos:R:3:forces:R:3 energy=        2.8405057938 pbc="T T T"
       O     0.0000000000     0.0000000000     0.0000000000     17.282855571    -24.990728342     -0.000000000
       H     1.1052600000     0.0000000000     0.0000000000     -5.348567798      0.837161766     -0.000000000
       H    -0.3568400000     0.6446700000     0.0000000000    -11.934287773     24.153566576     -0.000000000
