       3
Lattice="15.0 0.0 0.0 0.0 15.0 0.0 0.0 0.0 15.0" Properties=species:S:1:pos:R:3:forces:R:3 energy=        4.3038500116 pbc="T T T"
       O     0.0000000000     0.0000000000     0.0000000000     -6.562607134    -34.333433819     -0.000000000
       H     0.9210500000     0.0000000000     0.0000000000      3.712600104     -3.558384698     -0.000000000
       H     0.1381100000     0.6862400000     0.0000000000      2.850007030     37.891818568     -0.000000000
