       3
Lattice="15.0 0.0 0.0 0.0 15.0 0.0 0.0 0.0 15.0" Properties=species:S:1:pos:R:3:forces:R:3 energy=        1.8448596674 pbc="T T T"
       O     0.0000000000     0.0000000000     0.0000000000      3.724081576      6.300966360     -0.000000000
       H     0.9947400000     0.0000000000     0.0000000000     -0.798159553     -1.886649137     -0.000000000
       H     0.3896000000     1.2292000000     0.0000000000     -2.925922024     -4.414317223     -0.000000000
