       3
Lattice="15.0 0.0 0.0 0.0 15.0 0.0 0.0 0.0 15.0" Properties=species:S:1:pos:R:3:forces:R:3 energy=        3.9734010326 pbc="T T T"
       O     0.0000000000     0.0000000000     0.0000000000      1.917511799      3.576529547     -0.000000000
       H     1.4000000000     0.0000000000     0.0000000000     -5.640483173      0.990511944     -0.000000000
       H    -0.6423100000     1.1604100000     0.0000000000      3.722971322     -4.567041491     -0.000000000
