       3
Lattice="15.0 0.0 0.0 0.0 15.0 0.0 0.0 0.0 15.0" Properties=species:S:1:pos:R:3:forces:R:3 energy=        3.2065249495 pbc="T T T"
       O     0.0000000000     0.0000000000     0.0000000000      8.600394734      4.892832812     -0.000000000
       H     1.2894700000     0.0000000000     0.0000000000     -4.778161196     -1.631483225     -0.000000000
       H     0.6263200000     1.0848100000     0.0000000000     -3.822233537     -3.261349586     -0.000000000
