       3
Lattice="15.0 0.0 0.0 0.0 15.0 0.0 0.0 0.0 15.0" Properties=species:S:1:pos:R:3:forces:R:3 energy=        1.2441266309 pbc="T T T"
       O     0.0000000000     0.0000000000     0.0000000000      3.076673484     -1.414534107     -0.000000000
       H     1.1421100000     0.0000000000     0.0000000000     -5.804795254      1.588868456     -0.000000000
       H    -0.6970100000     0.7097100000     0.0000000000      2.728121771     -0.174334349     -0.000000000
