       3
Lattice="15.0 0.0 0.0 0.0 15.0 0.0 0.0 0.0 15.0" Properties=species:S:1:pos:R:3:forces:R:3 energy=        1.7324292437 pbc="T T T"
       O     0.0000000000     0.0000000000     0.0000000000      6.630824653    -13.128781316     -0.000000000
       H     1.1789500000     0.0000000000     0.0000000000     -5.321177669     -0.728282849     -0.000000000
       H    -0.0146300000     0.8104000000     0.0000000000     -1.309646984     13.857064165     -0.000000000
