       3
Lattice="15.0 0.0 0.0 0.0 15.0 0.0 0.0 0.0 15.0" Properties=species:S:1:pos:R:3:forces:R:3 energy=        1.8158790760 pbc="T T T"
       O     0.0000000000     0.0000000000     0.0000000000      5.562171962      4.741119296     -0.000000000
       H     1.0315800000     0.0000000000     0.0000000000     -1.226934864     -3.432032144     -0.000000000
       H     0.5710600000     0.9891000000     0.0000000000     -4.335237097     -1.309087151     -0.000000000
