       3
Lattice="15.0 0.0 0.0 0.0 15.0 0.0 0.0 0.0 15.0" Properties=species:S:1:pos:R:3:forces:R:3 energy=        4.1856093991 pbc="T T T"
       O     0.0000000000     0.0000000000     0.0000000000      1.960516554      3.525361691     -0.000000000
       H     1.4000000000     0.0000000000     0.0000000000     -5.610105112      0.983099604     -0.000000000
       H    -0.6601600000     1.1926400000     0.0000000000      3.649588558     -4.508461346     -0.000000000
