       3
Lattice="15.0 0.0 0.0 0.0 15.0 0.0 0.0 0.0 15.0" Properties=species:S:1:pos:R:3:forces:R:3 energy=        0.2101157756 pbc="T T T"
       O     0.0000000000     0.0000000000     0.0000000000     -5.462944868      1.811968993     -0.000000000
       H     0.8842100000     0.0000000000     0.0000000000      5.191374436     -0.140242379     -0.000000000
       H    -0.2313400000     0.9674600000     0.0000000000      0.271570431     -1.671726614     -0.000000000
