       3
Lattice="15.0 0.0 0.0 0.0 15.0 0.0 0.0 0.0 15.0" Properties=species:S:1:pos:R:3:forces:R:3 energy=        2.0217674022 pbc="T T T"
       O     0.0000000000     0.0000000000     0.0000000000     16.086355280    -14.898150555     -0.000000000
       H     0.9947400000     0.0000000000     0.0000000000     -2.831744116      1.519879863     -0.000000000
       H    -0.5986200000     0.4901400000     0.0000000000    -13.254611164     13.378270692     -0.000000000
