       3
Lattice="15.0 0.0 0.0 0.0 15.0 0.0 0.0 0.0 15.0" Properties=species:S:1:pos:R:3:forces:R:3 energy=        1.6983966517 pbc="T T T"
       O     0.0000000000     0.0000000000     0.0000000000     -4.970960497      2.432702701     -0.000000000
       H     0.9578900000     0.0000000000     0.0000000000     -0.054674123      1.761635666     -0.000000000
       H    -0.7759400000     0.9833600000     0.0000000000      5.025634621     -4.194338366     -0.000000000
