       3
Lattice="15.0 0.0 0.0 0.0 15.0 0.0 0.0 0.0 15.0" Properties=species:S:1:pos:R:3:forces:R:3 energy=        0.0381458869 pbc="T T T"
       O     0.0000000000     0.0000000000     0.0000000000     -0.214654202      1.842883798     -0.000000000
       H     0.9578900000     0.0000000000     0.0000000000      0.183223531     -0.262588587     -0.000000000
       H    -0.1786300000     0.9785700000     0.0000000000      0.031430723     -1.580295211     -0.000000000
