       3
Lattice="15.0 0.0 0.0 0.0 15.0 0.0 0.0 0.0 15.0" Properties=species:S:1:pos:R:3:forces:R:3 energy=        1.9125796097 pbc="T T T"
       O     0.0000000000     0.0000000000     0.0000000000     -4.879106662      6.501159334     -0.000000000
       H     0.8842100000     0.0000000000     0.0000000000      5.615311958     -0.794584895     -0.000000000
       H     0.0478800000     1.3254600000     0.0000000000     -0.736205296     -5.706574491     -0.000000000
