       3
Lattice="15.0 0.0 0.0 0.0 15.0 0.0 0.0 0.0 15.0" Properties=species:S:1:pos:R:3:forces:R:3 energy=        1.9111595672 pbc="T T T"
       O     0.0000000000     0.0000000000     0.0000000000     -4.215827297    -17.938105326     -0.000000000
       H     0.8473700000     0.0000000000     0.0000000000      8.889850641     -1.080054973     -0.000000000
       H    -0.1389300000     0.7611000000     0.0000000000     -4.674023345     19.018160300     -0.000000000
