       3
Lattice="15.0 0.0 0.0 0.0 15.0 0.0 0.0 0.0 15.0" Properties=species:S:1:pos:R:3:forces:R:3 energy=        2.5841142943 pbc="T T T"
       O     0.0000000000     0.0000000000     0.0000000000    -10.796013843      5.226206679     -0.000000000
       H     0.8473700000     0.0000000000     0.0000000000      9.105047449      0.512239222     -0.000000000
       H    -0.3255900000     1.3616100000     0.0000000000      1.690966394     -5.738445849     -0.000000000
