       3
Lattice="15.0 0.0 0.0 0.0 15.0 0.0 0.0 0.0 15.0" Properties=species:S:1:pos:R:3:forces:R:3 energy=        7.1700293752 pbc="T T T"
       O     0.0000000000     0.0000000000     0.0000000000    -31.344390668    -33.694009674     -0.000000000
       H     0.7000000000     0.0000000000     0.0000000000     37.120836360     -3.106040484     -0.000000000
       H    -0.0505100000     0.6981800000     0.0000000000     -5.776445692     36.800050106     -0.000000000
