       3
Lattice="15.0 0.0 0.0 0.0 15.0 0.0 0.0 0.0 15.0" Properties=species:S:1:pos:R:3:forces:R:3 energy=        2.1060358292 pbc="T T T"
       O     0.0000000000     0.0000000000     0.0000000000      5.617271551      6.200993337     -0.000000000
       H     1.0684200000     0.0000000000     0.0000000000     -3.260395809     -1.316320542     -0.000000000
       H     0.3317000000     1.2841700000     0.0000000000     -2.356875742     -4.884672795     -0.000000000
