       3
Lattice="15.0 0.0 0.0 0.0 15.0 0.0 0.0 0.0 15.0" Properties=species:S:1:pos:R:3:forces:R:3 energy=        2.8915007311 pbc="T T T"
       O     0.0000000000     0.0000000000     0.0000000000      7.790272604      5.185285290     -0.000000000
       H     1.1421100000     0.0000000000     0.0000000000     -3.941477296     -2.050669038     -0.000000000
       H     0.6631600000     1.1486300000     0.0000000000     -3.848795257     -3.134616252     -0.000000000
