       3
Lattice="15.0 0.0 0.0 0.0 15.0 0.0 0.0 0.0 15.0" Properties=species:S:1:pos:R:3:forces:R:3 energy=        3.8461118615 pbc="T T T"
       O     0.0000000000     0.0000000000     0.0000000000    -21.040695028    -10.265201014     -0.000000000
       H     0.7736800000     0.0000000000     0.0000000000     21.317214269     -6.462660491     -0.000000000
       H     0.2863700000     0.7582600000     0.0000000000     -0.276519242     16.727861557     -0.000000000
