       3
Lattice="15.0 0.0 0.0 0.0 15.0 0.0 0.0 0.0 15.0" Properties=species:S:1:pos:R:3:forces:R:3 energy=        5.0047269704 pbc="T T T"
       O     0.0000000000     0.0000000000     0.0000000000    -34.078176222      7.267852374     -0.000000000
       H     0.7000000000     0.0000000000     0.0000000000     37.609218099     -4.012564938     -0.000000000
       H     0.3562100000     1.1238500000     0.0000000000     -3.531041877     -3.255287436     -0.000000000
