       3
Lattice="15.0 0.0 0.0 0.0 15.0 0.0 0.0 0.0 15.0" Properties=species:S:1:pos:R:3:forces:R:3 energy=        3.5111076666 pbc="T T T"
       O     0.0000000000     0.0000000000     0.0000000000     15.366816294    -32.883658613     -0.000000000
       H     0.9210500000     0.0000000000     0.0000000000      1.586929380      0.606649146     -0.000000000
       H    -0.3390000000     0.6124400000     0.0000000000    -16.953745675     32.277009467     -0.000000000
