       3
Lattice="15.0 0.0 0.0 0.0 15.0 0.0 0.0 0.0 15.0" Properties=species:S:1:pos:R:3:forces:R:3 energy=        1.8017658118 pbc="T T T"
       O     0.0000000000     0.0000000000     0.0000000000      2.074836288      1.741547679     -0.000000000
       H     1.2157900000     0.0000000000     0.0000000000     -6.051569698      1.340934958     -0.000000000
       H    -0.6366700000     0.9034600000     0.0000000000      3.976733410     -3.082482637     -0.000000000
