       3
Lattice="15.0 0.0 0.0 0.0 15.0 0.0 0.0 0.0 15.0" Properties=species:S:1:pos:R:3:forces:R:3 energy=        1.1954056756 pbc="T T T"
       O     0.0000000000     0.0000000000     0.0000000000      6.702367123     -5.186175920     -0.000000000
       H     1.2157900000     0.0000000000     0.0000000000     -5.791201260     -0.166690970     -0.000000000
       H    -0.1114500000     0.8771600000     0.0000000000     -0.911165863      5.352866890     -0.000000000
