       3
Lattice="15.0 0.0 0.0 0.0 15.0 0.0 0.0 0.0 15.0" Properties=species:S:1:pos:R:3:forces:R:3 energy=        1.8071458865 pbc="T T T"
       O     0.0000000000     0.0000000000     0.0000000000      1.634800824     -0.148638218     -0.000000000
       H     1.1789500000     0.0000000000     0.0000000000     -6.052311205      1.677357898     -0.000000000
       H    -0.7888100000     0.7206300000     0.0000000000      4.417510380     -1.528719680     -0.000000000
