       3
Lattice="15.0 0.0 0.0 0.0 15.0 0.0 0.0 0.0 15.0" Properties=species:S:1:pos:R:3:forces:R:3 energy=        1.7502839321 pbc="T T T"
       O     0.0000000000     0.0000000000     0.0000000000      6.240213529     -4.963883687     -0.000000000
       H     1.2894700000     0.0000000000     0.0000000000     -5.598775180     -0.793982434     -0.000000000
       H     0.0797100000     0.8806100000     0.0000000000     -0.641438297      5.757866069     -0.000000000
