       3
Lattice="15.0 0.0 0.0 0.0 15.0 0.0 0.0 0.0 15.0" Properties=species:S:1:pos:R:3:forces:R:3 energy=        2.9832863525 pbc="T T T"
       O     0.0000000000     0.0000000000     0.0000000000      7.034001690    -13.697346082     -0.000000000
       H     1.4000000000     0.0000000000     0.0000000000     -5.799841405     -0.134770915     -0.000000000
       H    -0.0584900000     0.8084200000     0.0000000000     -1.234160233     13.832116997     -0.000000000
