       3
Lattice="15.0 0.0 0.0 0.0 15.0 0.0 0.0 0.0 15.0" Properties=species:S:1:pos:R:3:forces:R:3 energy=        1.1342070617 pbc="T T T"
       O     0.0000000000     0.0000000000     0.0000000000     -9.618092044      0.968929066     -0.000000000
       H     0.8842100000     0.0000000000     0.0000000000      4.690809828      1.890122442     -0.000000000
       H    -0.7744500000     0.7885600000     0.0000000000      4.927282216     -2.859051559     -0.000000000
