       3
Lattice="15.0 0.0 0.0 0.0 15.0 0.0 0.0 0.0 15.0" Properties=species:S:1:pos:R:3:forces:R:3 energy=        6.8387156402 pbc="T T T"
       O     0.0000000000     0.0000000000     0.0000000000    -14.376715419    -29.632101438     -0.000000000
       H     0.7000000000     0.0000000000     0.0000000000     35.849525469      0.925205482     -0.000000000
       H    -0.4336100000     0.5495300000     0.0000000000    -21.472810050     28.706895956     -0.000000000
