       3
Lattice="15.0 0.0 0.0 0.0 15.0 0.0 0.0 0.0 15.0" Properties=species:S:1:pos:R:3:forces:R:3 energy=        0.2103636822 pbc="T T T"
       O     0.0000000000     0.0000000000     0.0000000000      0.419980592     -3.302007437     -0.000000000
       H     0.9578900000     0.0000000000     0.0000000000     -0.434611873      1.123889886     -0.000000000
       H    -0.4890200000     0.7805100000     0.0000000000      0.014631281      2.178117550     -0.000000000
