       3
Lattice="15.0 0.0 0.0 0.0 15.0 0.0 0.0 0.0 15.0" Properties=species:S:1:pos:R:3:forces:R:3 energy=        3.5678841582 pbc="T T T"
       O     0.0000000000     0.0000000000     0.0000000000    -31.333080535      3.311543663     -0.000000000
       H     0.7368400000     0.0000000000     0.0000000000     27.011672534      1.674382359     -0.000000000
       H    -0.6455100000     1.0302700000     0.0000000000      4.321408001     -4.985926022     -0.000000000
