       3
Lattice="15.0 0.0 0.0 0.0 15.0 0.0 0.0 0.0 15.0" Properties=species:S:1:pos:R:3:forces:R:3 energy=        1.5782422788 pbc="T T T"
       O     0.0000000000     0.0000000000     0.0000000000     -4.984459207     -3.447157334     -0.000000000
       H     0.8842100000     0.0000000000     0.0000000000      6.912117304     -4.671886603     -0.000000000
       H     0.3124000000     0.8271900000     0.0000000000     -1.927658097      8.119043937     -0.000000000
