       3
Lattice="15.0 0.0 0.0 0.0 15.0 0.0 0.0 0.0 15.0" Properties=species:S:1:pos:R:3:forces:R:3 energy=        2.1737231505 pbc="T T T"
       O     0.0000000000     0.0000000000     0.0000000000     -4.284487868      5.167423931     -0.000000000
       H     0.9210500000     0.0000000000     0.0000000000      2.577175987      0.515169870     -0.000000000
       H    -0.3255900000     1.3616100000     0.0000000000      1.707311881     -5.682593852     -0.000000000
