       3
Lattice="15.0 0.0 0.0 0.0 15.0 0.0 0.0 0.0 15.0" Properties=species:S:1:pos:R:3:forces:R:3 energy=        2.2773058900 pbc="T T T"
       O     0.0000000000     0.0000000000     0.0000000000    -11.752420808      1.552982524     -0.000000000
       H     0.8105300000     0.0000000000     0.0000000000     15.145166477     -5.596877140     -0.000000000
       H     0.3864500000     0.8764800000     0.0000000000     -3.392745670      4.043894616     -0.000000000
