       3
Lattice="15.0 0.0 0.0 0.0 15.0 0.0 0.0 0.0 15.0" Properties=species:S:1:pos:R:3:forces:R:3 energy=        2.2850147913 pbc="T T T"
       O     0.0000000000     0.0000000000     0.0000000000      2.277975902      0.397185489     -0.000000000
       H     1.2894700000     0.0000000000     0.0000000000     -6.262346212      1.459964544     -0.000000000
       H    -0.7062700000     0.8016900000     0.0000000000      3.984370310     -1.857150033     -0.000000000
