       3
Lattice="15.0 0.0 0.0 0.0 15.0 0.0 0.0 0.0 15.0" Properties=species:S:1:pos:R:3:forces:R:3 energy=        4.7592407931 pbc="T T T"
       O     0.0000000000     0.0000000000     0.0000000000      0.283914921      1.098837508     -0.000000000
       H     1.4000000000     0.0000000000     0.0000000000     -5.451054127      1.514658773     -0.000000000
       H    -1.0064100000     0.9194200000     0.0000000000      5.167139206     -2.613496333     -0.000000000
