       3
Lattice="15.0 0.0 0.0 0.0 15.0 0.0 0.0 0.0 15.0" Properties=species:S:1:pos:R:3:forces:R:3 energy=        3.0999220047 pbc="T T T"
       O     0.0000000000     0.0000000000     0.0000000000      8.173175711      5.649802089     -0.000000000
       H     1.2894700000     0.0000000000     0.0000000000     -5.243799614     -1.150989789     -0.000000000
       H     0.4555800000     1.2063100000     0.0000000000     -2.929376148     -4.498812249     -0.000000000
