       3
Lattice="15.0 0.0 0.0 0.0 15.0 0.0 0.0 0.0 15.0" Properties=species:S:1:pos:R:3:forces:R:3 energy=        1.6648787195 pbc="T T T"
       O     0.0000000000     0.0000000000     0.0000000000      9.134693209    -16.882532511     -0.000000000
       H     0.9210500000     0.0000000000     0.0000000000      1.407101712      1.205587190     -0.000000000
       H    -0.4792500000     0.6073700000     0.0000000000    -10.541794972     15.676945372     -0.000000000
