       3
Lattice="15.0 0.0 0.0 0.0 15.0 0.0 0.0 0.0 15.0" Properties=species:S:1:pos:R:3:forces:R:3 energy=        6.3004045190 pbc="T T T"
       O     0.0000000000     0.0000000000     0.0000000000    -24.032766888    -31.498551104     -0.000000000
       H     0.8105300000     0.0000000000     0.0000000000     16.170351923     -7.307358781     -0.000000000
       H     0.2824000000     0.6405100000     0.0000000000      7.862414964     38.805909886     -0.000000000
