       3
Lattice="15.0 0.0 0.0 0.0 15.0 0.0 0.0 0.0 15.0" Properties=species:S:1:pos:R:3:forces:R:3 energy=        5.3760618541 pbc="T T T"
       O     0.0000000000     0.0000000000     0.0000000000    -17.699355042    -34.068110760     -0.000000000
       H     0.7736800000     0.0000000000     0.0000000000     20.191026690     -3.479276239     -0.000000000
       H     0.0252700000     0.6995400000     0.0000000000     -2.491671648     37.547387050     -0.000000000
