       3
Lattice="15.0 0.0 0.0 0.0 15.0 0.0 0.0 0.0 15.0" Properties=species:S:1:pos:R:3:forces:R:3 energy=        4.0372043639 pbc="T T T"
       O     0.0000000000     0.0000000000     0.0000000000    -36.194695511      6.070014287     -0.000000000
       H     0.7000000000     0.0000000000     0.0000000000     37.198474045     -1.708941447     -0.000000000
       H    -0.0199500000     1.1050800000     0.0000000000     -1.003778534     -4.361072839     -0.000000000
