       3
Lattice="15.0 0.0 0.0 0.0 15.0 0.0 0.0 0.0 15.0" Properties=species:S:1:pos:R:3:forces:R:3 energy=        1.7124551041 pbc="T T T"
       O     0.0000000000     0.0000000000     0.0000000000      5.058734350      6.186601529     -0.000000000
       H     1.0315800000     0.0000000000     0.0000000000     -2.085949989     -1.850115595     -0.000000000
       H     0.3784700000     1.1940900000     0.0000000000     -2.972784361     -4.336485883     -0.000000000
