       3
Lattice="15.0 0.0 0.0 0.0 15.0 0.0 0.0 0.0 15.0" Properties=species:S:1:pos:R:3:forces:R:3 energy=        1.4992268412 pbc="T T T"
       O     0.0000000000     0.0000000000     0.0000000000    -13.573131453      5.916938394     -0.000000000
       H     0.8105300000     0.0000000000     0.0000000000     13.805070933     -0.841964846     -0.000000000
       H    -0.0824100000     1.1391300000     0.0000000000     -0.231939429     -5.074973548     -0.000000000
