       3
Lattice="15.0 0.0 0.0 0.0 15.0 0.0 0.0 0.0 15.0" Properties=species:S:1:pos:R:3:forces:R:3 energy=        3.4994139708 pbc="T T T"
       O     0.0000000000     0.0000000000     0.0000000000      1.368832109      2.748148977     -0.000000000
       H     1.3631600000     0.0000000000     0.0000000000     -5.822436990      1.236245296     -0.000000000
       H    -0.7215600000     1.0239300000     0.0000000000      4.453604932     -3.984394273     -0.000000000
