       3
Lattice="15.0 0.0 0.0 0.0 15.0 0.0 0.0 0.0 15.0" Properties=species:S:1:pos:R:3:forces:R:3 energy=        2.3101252215 pbc="T T T"
       O     0.0000000000     0.0000000000     0.0000000000     -4.679455985      2.691906171     -0.000000000
       H     0.9578900000     0.0000000000     0.0000000000      0.137192895      1.690983620     -0.000000000
       H    -0.7852300000     1.1142800000     0.0000000000      4.542263090     -4.382889843     -0.000000000
