       3
Lattice="15.0 0.0 0.0 0.0 15.0 0.0 0.0 0.0 15.0" Properties=species:S:1:pos:R:3:forces:R:3 energy=        4.5382179648 pbc="T T T"
       O     0.0000000000     0.0000000000     0.0000000000     19.315461984    -25.040434731     -0.000000000
       H     1.3631600000     0.0000000000     0.0000000000     -6.458757863      1.008028055     -0.000000000
       H    -0.3912200000     0.6244100000     0.0000000000    -12.856704120     24.032406676     -0.000000000
