       3
Lattice="15.0 0.0 0.0 0.0 15.0 0.0 0.0 0.0 15.0" Properties=species:S:1:pos:R:3:forces:R:3 energy=        2.2593408704 pbc="T T T"
       O     0.0000000000     0.0000000000     0.0000000000    -11.050208905      0.859277583     -0.000000000
       H     0.8842100000     0.0000000000     0.0000000000      4.857045713      2.202387644     -0.000000000
       H    -0.9691900000     0.7935700000     0.0000000000      6.193163193     -3.061665228     -0.000000000
