       3
Lattice="15.0 0.0 0.0 0.0 15.0 0.0 0.0 0.0 15.0" Properties=species:S:1:pos:R:3:forces:R:3 energy=        2.0945284551 pbc="T T T"
       O     0.0000000000     0.0000000000     0.0000000000    -14.364897954      6.207343296     -0.000000000
       H     0.8105300000     0.0000000000     0.0000000000     13.779008985     -0.260246979     -0.000000000
       H    -0.1578900000     1.2426400000     0.0000000000      0.585888970     -5.947096317     -0.000000000
