       3
Lattice="15.0 0.0 0.0 0.0 15.0 0.0 0.0 0.0 15.0" Properties=species:S:1:pos:R:3:forces:R:3 energy=        2.3896755615 pbc="T T T"
       O     0.0000000000     0.0000000000     0.0000000000     -1.447880919      1.556891734     -0.000000000
       H     1.0684200000     0.0000000000     0.0000000000     -4.053994017      1.853498140     -0.000000000
       H    -0.9035200000     0.9199900000     0.0000000000      5.501874936     -3.410389873     -0.000000000
