       3
Lattice="15.0 0.0 0.0 0.0 15.0 0.0 0.0 0.0 15.0" Properties=species:S:1:pos:R:3:forces:R:3 energy=        2.2393412690 pbc="T T T"
       O     0.0000000000     0.0000000000     0.0000000000      8.030915992      4.363121033     -0.000000000
       H     1.1789500000     0.0000000000     0.0000000000     -3.993161945     -2.471069800     -0.000000000
       H     0.5710600000     0.9891000000     0.0000000000     -4.037754048     -1.892051233     -0.000000000
