       3
Lattice="15.0 0.0 0.0 0.0 15.0 0.0 0.0 0.0 15.0" Properties=species:S:1:pos:R:3:forces:R:3 energy=        0.4659908137 pbc="T T T"
       O     0.0000000000     0.0000000000     0.0000000000      5.278170395     -2.138528508     -0.000000000
       H     1.1052600000     0.0000000000     0.0000000000     -4.576237149     -0.321832437     -0.000000000
       H    -0.1161000000     0.9137000000     0.0000000000     -0.701933297      2.460360996     -0.000000000
