       3
Lattice="15.0 0.0 0.0 0.0 15.0 0.0 0.0 0.0 15.0" Properties=species:S:1:pos:R:3:forces:R:3 energy=        1.5308712314 pbc="T T T"
       O     0.0000000000     0.0000000000     0.0000000000     11.928691867    -10.613343511     -0.000000000
       H     0.9947400000     0.0000000000     0.0000000000     -2.832374139      1.568520273     -0.000000000
       H    -0.6540100000     0.4787800000     0.0000000000     -9.096317727      9.044823238     -0.000000000
