       3
Lattice="15.0 0.0 0.0 0.0 15.0 0.0 0.0 0.0 15.0" Properties=species:S:1:pos:R:3:forces:R:3 energy=        0.7339189068 pbc="T T T"
       O     0.0000000000     0.0000000000     0.0000000000    -10.895547104      3.041696488     -0.000000000
       H     0.8473700000     0.0000000000     0.0000000000      8.692729160      0.724294089     -0.000000000
       H    -0.4133200000     0.9852400000     0.0000000000      2.202817893     -3.765990578     -0.000000000
