       3
Lattice="15.0 0.0 0.0 0.0 15.0 0.0 0.0 0.0 15.0" Properties=species:S:1:pos:R:3:forces:R:3 energy=        1.0586197471 pbc="T T T"
       O     0.0000000000     0.0000000000     0.0000000000     -0.582184162      5.018690685     -0.000000000
       H     0.9947400000     0.0000000000     0.0000000000     -1.546642026      0.553785389     -0.000000000
       H    -0.3463600000     1.1654100000     0.0000000000      2.128826137     -5.572476074     -0.000000000
