       3
Lattice="15.0 0.0 0.0 0.0 15.0 0.0 0.0 0.0 15.0" Properties=species:S:1:pos:R:3:forces:R:3 energy=        1.5224864101 pbc="T T T"
       O     0.0000000000     0.0000000000     0.0000000000     -5.394189166      1.077079331     -0.000000000
       H     0.9578900000     0.0000000000     0.0000000000     -0.306439646      1.966594902     -0.000000000
       H    -0.8704100000     0.7951800000     0.0000000000      5.700628812     -3.043674182     -0.000000000
