       3
Lattice="15.0 0.0 0.0 0.0 15.0 0.0 0.0 0.0 15.0" Properties=species:S:1:pos:R:3:forces:R:3 energy=        2.0557425211 pbc="T T T"
       O     0.0000000000     0.0000000000     0.0000000000     11.090342302     -9.002526462     -0.000000000
       H     1.2157900000     0.0000000000     0.0000000000     -6.592837923      1.451304653     -0.000000000
       H    -0.5937500000     0.6045700000     0.0000000000     -4.497504379      7.551221809     -0.000000000
