       3
Lattice="15.0 0.0 0.0 0.0 15.0 0.0 0.0 0.0 15.0" Properties=species:S:1:pos:R:3:forces:R:3 energy=        1.7681804824 pbc="T T T"
       O     0.0000000000     0.0000000000     0.0000000000      3.766026522      5.487156700     -0.000000000
       H     1.1421100000     0.0000000000     0.0000000000     -5.060039391      0.263554499     -0.000000000
       H    -0.2249400000     1.2322700000     0.0000000000      1.294012869     -5.750711200     -0.000000000
