       3
Lattice="15.0 0.0 0.0 0.0 15.0 0.0 0.0 0.0 15.0" Properties=species:S:1:pos:R:3:forces:R:3 energy=        1.4183008595 pbc="T T T"
       O     0.0000000000     0.0000000000     0.0000000000      6.768125997      3.867339604     -0.000000000
       H     1.1052600000     0.0000000000     0.0000000000     -3.273566960     -2.594609771     -0.000000000
       H     0.4310400000     0.9776100000     0.0000000000     -3.494559037     -1.272729833     -0.000000000
