       3
Lattice="15.0 0.0 0.0 0.0 15.0 0.0 0.0 0.0 15.0" Properties=species:S:1:pos:R:3:forces:R:3 energy=        3.8463884054 pbc="T T T"
       O     0.0000000000     0.0000000000     0.0000000000    -25.012689327      2.127348626     -0.000000000
       H     0.7368400000     0.0000000000     0.0000000000     28.543465455     -6.485746643     -0.000000000
       H     0.3864500000     0.8764800000     0.0000000000     -3.530776076      4.358398017     -0.000000000
