       3
Lattice="15.0 0.0 0.0 0.0 15.0 0.0 0.0 0.0 15.0" Properties=species:S:1:pos:R:3:forces:R:3 energy=        2.0895432694 pbc="T T T"
       O     0.0000000000     0.0000000000     0.0000000000    -17.967900466     -3.096897637     -0.000000000
       H     0.7736800000     0.0000000000     0.0000000000     20.191225025     -3.176989698     -0.000000000
       H     0.0797100000     0.8806100000     0.0000000000     -2.223324559      6.273887385     -0.000000000
