       3
Lattice="15.0 0.0 0.0 0.0 15.0 0.0 0.0 0.0 15.0" Properties=species:S:1:pos:R:3:forces:R:3 energy=        2.9117888630 pbc="T T T"
       O     0.0000000000     0.0000000000     0.0000000000      7.966104416      5.724660256     -0.000000000
       H     1.2157900000     0.0000000000     0.0000000000     -5.032877524     -1.280682876     -0.000000000
       H     0.4686000000     1.2407800000     0.0000000000     -2.933226891     -4.443977380     -0.000000000
