       3
Lattice="15.0 0.0 0.0 0.0 15.0 0.0 0.0 0.0 15.0" Properties=species:S:1:pos:R:3:forces:R:3 energy=        0.8813638263 pbc="T T T"
       O     0.0000000000     0.0000000000     0.0000000000    -12.560644280     -1.593167805     -0.000000000
       H     0.8105300000     0.0000000000     0.0000000000     13.499692073     -0.487856925     -0.000000000
       H    -0.2142100000     0.8958000000     0.0000000000     -0.939047793      2.081024730     -0.000000000
