       3
Lattice="15.0 0.0 0.0 0.0 15.0 0.0 0.0 0.0 15.0" Properties=species:S:1:pos:R:3:forces:R:3 energy=        3.5631660685 pbc="T T T"
       O     0.0000000000     0.0000000000     0.0000000000    -24.375793555      4.811600054     -0.000000000
       H     0.7368400000     0.0000000000     0.0000000000     28.220252695     -5.253932954     -0.000000000
       H     0.3644600000     0.9650500000     0.0000000000     -3.844459141      0.442332848     -0.000000000
