       3
Lattice="15.0 0.0 0.0 0.0 15.0 0.0 0.0 0.0 15.0" Properties=species:S:1:pos:R:3:forces:R:3 energy=        2.1289159598 pbc="T T T"
       O     0.0000000000     0.0000000000     0.0000000000     -9.396984370      6.263099032     -0.000000000
       H     0.8473700000     0.0000000000     0.0000000000      9.178191358     -0.328656456     -0.000000000
       H    -0.0957000000     1.3228600000     0.0000000000      0.218793012     -5.934442524     -0.000000000
