       3
Lattice="15.0 0.0 0.0 0.0 15.0 0.0 0.0 0.0 15.0" Properties=species:S:1:pos:R:3:forces:R:3 energy=        2.9707728782 pbc="T T T"
       O     0.0000000000     0.0000000000     0.0000000000      3.305800793     -8.274245773     -0.000000000
       H     1.3631600000     0.0000000000     0.0000000000     -4.606348072     -1.782291507     -0.000000000
       H     0.3418600000     0.7753500000     0.0000000000      1.300547280     10.056537280     -0.000000000
