       3
Lattice="15.0 0.0 0.0 0.0 15.0 0.0 0.0 0.0 15.0" Properties=species:S:1:pos:R:3:forces:R:3 energy=        2.4950318766 pbc="T T T"
       O     0.0000000000     0.0000000000     0.0000000000      7.165077465      3.796460324     -0.000000000
       H     1.4000000000     0.0000000000     0.0000000000     -5.211349655     -0.888646331     -0.000000000
       H     0.2672000000     1.0344700000     0.0000000000     -1.953727759     -2.907813993     -0.000000000
