       3
Lattice="15.0 0.0 0.0 0.0 15.0 0.0 0.0 0.0 15.0" Properties=species:S:1:pos:R:3:forces:R:3 energy=        0.3813595529 pbc="T T T"
       O     0.0000000000     0.0000000000     0.0000000000     -7.088423484      1.798455886     -0.000000000
       H     0.8842100000     0.0000000000     0.0000000000      4.926947716      0.897280203     -0.000000000
       H    -0.4499800000     0.9282600000     0.0000000000      2.161475769     -2.695736088     -0.000000000
