       3
Lattice="15.0 0.0 0.0 0.0 15.0 0.0 0.0 0.0 15.0" Properties=species:S:1:pos:R:3:forces:R:3 energy=        2.0683068180 pbc="T T T"
       O     0.0000000000     0.0000000000     0.0000000000      6.482791776     -4.323727548     -0.000000000
       H     1.2894700000     0.0000000000     0.0000000000     -6.503376192      1.394247322     -0.000000000
       H    -0.6088500000     0.6911100000     0.0000000000      0.020584416      2.929480175     -0.000000000
