       3
Lattice="15.0 0.0 0.0 0.0 15.0 0.0 0.0 0.0 15.0" Properties=species:S:1:pos:R:3:forces:R:3 energy=        2.6623143346 pbc="T T T"
       O     0.0000000000     0.0000000000     0.0000000000      4.090054064     -4.882169516     -0.000000000
       H     1.2894700000     0.0000000000     0.0000000000     -4.088982222     -2.548240109     -0.000000000
       H     0.4421100000     0.7657500000     0.0000000000     -0.001071893      7.430409626     -0.000000000
