       3
Lattice="15.0 0.0 0.0 0.0 15.0 0.0 0.0 0.0 15.0" Properties=species:S:1:pos:R:3:forces:R:3 energy=        1.2221562721 pbc="T T T"
       O     0.0000000000     0.0000000000     0.0000000000      2.022724681    -12.304271235     -0.000000000
       H     0.9947400000     0.0000000000     0.0000000000     -0.863024608     -1.991187464     -0.000000000
       H     0.0730700000     0.8072300000     0.0000000000     -1.159700022     14.295458699     -0.000000000
