       3
Lattice="15.0 0.0 0.0 0.0 15.0 0.0 0.0 0.0 15.0" Properties=species:S:1:pos:R:3:forces:R:3 energy=        2.3691988167 pbc="T T T"
       O     0.0000000000     0.0000000000     0.0000000000      4.953554995     -2.879207526     -0.000000000
       H     1.3263200000     0.0000000000     0.0000000000     -6.399847229      1.462280698     -0.000000000
       H    -0.6711900000     0.6834200000     0.0000000000      1.446292234      1.416926828     -0.000000000
