       3
Lattice="15.0 0.0 0.0 0.0 15.0 0.0 0.0 0.0 15.0" Properties=species:S:1:pos:R:3:forces:R:3 energy=        5.7472070010 pbc="T T T"
       O     0.0000000000     0.0000000000     0.0000000000    -19.514477958    -21.435763058     -0.000000000
       H     0.7000000000     0.0000000000     0.0000000000     35.848956380      1.187587763     -0.000000000
       H    -0.4870800000     0.5528900000     0.0000000000    -16.334478423     20.248175296     -0.000000000
