       3
Lattice="15.0 0.0 0.0 0.0 15.0 0.0 0.0 0.0 15.0" Properties=species:S:1:pos:R:3:forces:R:3 energy=        2.4181735073 pbc="T T T"
       O     0.0000000000     0.0000000000     0.0000000000     10.661478287    -13.621170430     -0.000000000
       H     1.2894700000     0.0000000000     0.0000000000     -6.391799672      0.673525474     -0.000000000
       H    -0.3135500000     0.7474200000     0.0000000000     -4.269678666     12.947645008     -0.000000000
