       3
Lattice="15.0 0.0 0.0 0.0 15.0 0.0 0.0 0.0 15.0" Properties=species:S:1:pos:R:3:forces:R:3 energy=        1.4214577558 pbc="T T T"
       O     0.0000000000     0.0000000000     0.0000000000     -1.893495833      4.053107963     -0.000000000
       H     0.9947400000     0.0000000000     0.0000000000     -1.631469753      1.141137420     -0.000000000
       H    -0.5464000000     1.1271800000     0.0000000000      3.524965586     -5.194245383     -0.000000000
