       3
Lattice="15.0 0.0 0.0 0.0 15.0 0.0 0.0 0.0 15.0" Properties=species:S:1:pos:R:3:forces:R:3 energy=        2.6964451788 pbc="T T T"
       O     0.0000000000     0.0000000000     0.0000000000      4.167167501    -24.115615327     -0.000000000
       H     0.8473700000     0.0000000000     0.0000000000      8.154668234      0.549653573     -0.000000000
       H    -0.3568400000     0.6446700000     0.0000000000    -12.321835734     23.565961754     -0.000000000
