       3
Lattice="15.0 0.0 0.0 0.0 15.0 0.0 0.0 0.0 15.0" Properties=species:S:1:pos:R:3:forces:R:3 energy=        3.5515608613 pbc="T T T"
       O     0.0000000000     0.0000000000     0.0000000000    -16.471241583      6.867535742     -0.000000000
       H     0.7736800000     0.0000000000     0.0000000000     20.414696624     -3.910709661     -0.000000000
       H     0.5053500000     1.1461700000     0.0000000000     -3.943455092     -2.956826081     -0.000000000
