       3
Lattice="15.0 0.0 0.0 0.0 15.0 0.0 0.0 0.0 15.0" Properties=species:S:1:pos:R:3:forces:R:3 energy=        2.0311381518 pbc="T T T"
       O     0.0000000000     0.0000000000     0.0000000000      3.077814386     -4.488065187     -0.000000000
       H     1.1052600000     0.0000000000     0.0000000000     -2.272961014     -3.921488296     -0.000000000
       H     0.4421100000     0.7657500000     0.0000000000     -0.804853371      8.409553483     -0.000000000
