       3
Lattice="15.0 0.0 0.0 0.0 15.0 0.0 0.0 0.0 15.0" Properties=species:S:1:pos:R:3:forces:R:3 energy=        0.9902921038 pbc="T T T"
       O     0.0000000000     0.0000000000     0.0000000000     -0.441278695    -12.545127151     -0.000000000
       H     0.8842100000     0.0000000000     0.0000000000      4.885623383      0.024039363     -0.000000000
       H    -0.2726300000     0.7633000000     0.0000000000     -4.444344688     12.521087787     -0.000000000
