       3
Lattice="15.0 0.0 0.0 0.0 15.0 0.0 0.0 0.0 15.0" Properties=species:S:1:pos:R:3:forces:R:3 energy=        1.3889061843 pbc="T T T"
       O     0.0000000000     0.0000000000     0.0000000000      5.975078623      5.371290756     -0.000000000
       H     1.1789500000     0.0000000000     0.0000000000     -5.235256246     -0.547544856     -0.000000000
       H     0.0412300000     1.1413700000     0.0000000000     -0.739822377     -4.823745900     -0.000000000
