       3
Lattice="15.0 0.0 0.0 0.0 15.0 0.0 0.0 0.0 15.0" Properties=species:S:1:pos:R:3:forces:R:3 energy=        2.7618508771 pbc="T T T"
       O     0.0000000000     0.0000000000     0.0000000000     13.372535844    -13.023084398     -0.000000000
       H     1.2894700000     0.0000000000     0.0000000000     -6.630702525      1.255226886     -0.000000000
       H    -0.5020800000     0.6363000000     0.0000000000     -6.741833318     11.767857513     -0.000000000
