       3
Lattice="15.0 0.0 0.0 0.0 15.0 0.0 0.0 0.0 15.0" Properties=species:S:1:pos:R:3:forces:R:3 energy=        1.6113289160 pbc="T T T"
       O     0.0000000000     0.0000000000     0.0000000000      2.802973972      5.277405954     -0.000000000
       H     1.1052600000     0.0000000000     0.0000000000     -4.554583976      0.427141684     -0.000000000
       H    -0.2913200000     1.2182800000     0.0000000000      1.751610004     -5.704547638     -0.000000000
