       3
Lattice="15.0 0.0 0.0 0.0 15.0 0.0 0.0 0.0 15.0" Properties=species:S:1:pos:R:3:forces:R:3 energy=        3.9275310768 pbc="T T T"
       O     0.0000000000     0.0000000000     0.0000000000     18.750751509    -34.680481487     -0.000000000
       H     1.1052600000     0.0000000000     0.0000000000     -5.210278635      0.472913306     -0.000000000
       H    -0.2707900000     0.6455000000     0.0000000000    -13.540472874     34.207568181     -0.000000000
