       3
Lattice="15.0 0.0 0.0 0.0 15.0 0.0 0.0 0.0 15.0" Properties=species:S:1:pos:R:3:forces:R:3 energy=        1.9408026198 pbc="T T T"
       O     0.0000000000     0.0000000000     0.0000000000     15.340453939    -15.561947536     -0.000000000
       H     0.9947400000     0.0000000000     0.0000000000     -2.757438994      1.483319736     -0.000000000
       H    -0.5712000000     0.5218300000     0.0000000000    -12.583014945     14.078627799     -0.000000000
