       3
Lattice="15.0 0.0 0.0 0.0 15.0 0.0 0.0 0.0 15.0" Properties=species:S:1:pos:R:3:forces:R:3 energy=        0.7529243048 pbc="T T T"
       O     0.0000000000     0.0000000000     0.0000000000     -8.303103180      2.850375984     -0.000000000
       H     0.8842100000     0.0000000000     0.0000000000      4.953581992      1.206996104     -0.000000000
       H    -0.5352600000     0.9670000000     0.0000000000      3.349521188     -4.057372088     -0.000000000
