       3
Lattice="15.0 0.0 0.0 0.0 15.0 0.0 0.0 0.0 15.0" Properties=species:S:1:pos:R:3:forces:R:3 energy=        6.2653883334 pbc="T T T"
       O     0.0000000000     0.0000000000     0.0000000000     33.493080130    -26.894830341     -0.000000000
       H     1.3631600000     0.0000000000     0.0000000000     -6.784726641      1.429265815     -0.000000000
       H    -0.5416100000     0.4434600000     0.0000000000    -26.708353437     25.465564526     -0.000000000
