       3
Lattice="15.0 0.0 0.0 0.0 15.0 0.0 0.0 0.0 15.0" Properties=species:S:1:pos:R:3:forces:R:3 energy=        0.6474858304 pbc="T T T"
       O     0.0000000000     0.0000000000     0.0000000000      5.698420799      0.198497331     -0.000000000
       H     1.1421100000     0.0000000000     0.0000000000     -4.922148184     -0.644205268     -0.000000000
       H    -0.0172900000     0.9577300000     0.0000000000     -0.776272615      0.445707937     -0.000000000
