       3
Lattice="15.0 0.0 0.0 0.0 15.0 0.0 0.0 0.0 15.0" Properties=species:S:1:pos:R:3:forces:R:3 energy=        2.4493945074 pbc="T T T"
       O     0.0000000000     0.0000000000     0.0000000000     10.822563221     -9.248855282     -0.000000000
       H     1.2894700000     0.0000000000     0.0000000000     -6.621335632      1.356776972     -0.000000000
       H    -0.5601500000     0.6358200000     0.0000000000     -4.201227589      7.892078361     -0.000000000
