       3
Lattice="15.0 0.0 0.0 0.0 15.0 0.0 0.0 0.0 15.0" Properties=species:S:1:pos:R:3:forces:R:3 energy=        1.8723296024 pbc="T T T"
       O     0.0000000000     0.0000000000     0.0000000000     -0.367528109      1.340101664     -0.000000000
       H     1.1052600000     0.0000000000     0.0000000000     -4.966630963      1.749947374     -0.000000000
       H    -0.8260800000     0.8411400000     0.0000000000      5.334159072     -3.090049037     -0.000000000
