       3
Lattice="15.0 0.0 0.0 0.0 15.0 0.0 0.0 0.0 15.0" Properties=species:S:1:pos:R:3:forces:R:3 energy=        0.6313641454 pbc="T T T"
       O     0.0000000000     0.0000000000     0.0000000000     -3.576397907      1.089622464     -0.000000000
       H     0.9578900000     0.0000000000     0.0000000000     -0.343663067      1.584722242     -0.000000000
       H    -0.6618300000     0.8387500000     0.0000000000      3.920060973     -2.674344706     -0.000000000
