       3
Lattice="15.0 0.0 0.0 0.0 15.0 0.0 0.0 0.0 15.0" Properties=species:S:1:pos:R:3:forces:R:3 energy=        1.7003800760 pbc="T T T"
       O     0.0000000000     0.0000000000     0.0000000000      9.618851086    -18.798362243     -0.000000000
       H     1.0684200000     0.0000000000     0.0000000000     -4.197138196      0.095044576     -0.000000000
       H    -0.2204100000     0.7416200000     0.0000000000     -5.421712890     18.703317667     -0.000000000
