       3
Lattice="15.0 0.0 0.0 0.0 15.0 0.0 0.0 0.0 15.0" Properties=species:S:1:pos:R:3:forces:R:3 energy=        2.2490242203 pbc="T T T"
       O     0.0000000000     0.0000000000     0.0000000000      6.843612593      6.066916723     -0.000000000
       H     1.2157900000     0.0000000000     0.0000000000     -5.359713896     -0.720007801     -0.000000000
       H     0.1803000000     1.2395900000     0.0000000000     -1.483898698     -5.346908922     -0.000000000
