       3
Lattice="15.0 0.0 0.0 0.0 15.0 0.0 0.0 0.0 15.0" Properties=species:S:1:pos:R:3:forces:R:3 energy=        1.5853121833 pbc="T T T"
       O     0.0000000000     0.0000000000     0.0000000000    -17.586166594     -4.501604571     -0.000000000
       H     0.7736800000     0.0000000000     0.0000000000     19.262128331     -0.052968812     -0.000000000
       H    -0.2974100000     0.8326900000     0.0000000000     -1.675961737      4.554573383     -0.000000000
