       3
Lattice="15.0 0.0 0.0 0.0 15.0 0.0 0.0 0.0 15.0" Properties=species:S:1:pos:R:3:forces:R:3 energy=        0.5858274230 pbc="T T T"
       O     0.0000000000     0.0000000000     0.0000000000     -8.273508277     -3.055259887     -0.000000000
       H     0.8473700000     0.0000000000     0.0000000000      8.316359177      1.092972613     -0.000000000
       H    -0.4890200000     0.7805100000     0.0000000000     -0.042850900      1.962287274     -0.000000000
