       3
Lattice="15.0 0.0 0.0 0.0 15.0 0.0 0.0 0.0 15.0" Properties=species:S:1:pos:R:3:forces:R:3 energy=        0.4548271766 pbc="T T T"
       O     0.0000000000     0.0000000000     0.0000000000     -2.157753478     -0.902776041     -0.000000000
       H     0.9578900000     0.0000000000     0.0000000000     -0.520650847      1.604995760     -0.000000000
       H    -0.6575600000     0.7464000000     0.0000000000      2.678404325     -0.702219718     -0.000000000
