       3
Lattice="15.0 0.0 0.0 0.0 15.0 0.0 0.0 0.0 15.0" Properties=species:S:1:pos:R:3:forces:R:3 energy=        1.6886585593 pbc="T T T"
       O     0.0000000000     0.0000000000     0.0000000000      5.175810513     -1.747416173     -0.000000000
       H     1.2894700000     0.0000000000     0.0000000000     -6.315252033      1.006947009     -0.000000000
       H    -0.4638900000     0.8380700000     0.0000000000      1.139441519      0.740469113     -0.000000000
