       3
Lattice="15.0 0.0 0.0 0.0 15.0 0.0 0.0 0.0 15.0" Properties=species:S:1:pos:R:3:forces:R:3 energy=        2.0591422790 pbc="T T T"
       O     0.0000000000     0.0000000000     0.0000000000      1.250039323      6.371312958     -0.000000000
       H     0.9578900000     0.0000000000     0.0000000000      0.704115291     -1.303217629     -0.000000000
       H     0.2689600000     1.3363600000     0.0000000000     -1.954154613     -5.068095329     -0.000000000
