       3
Lattice="15.0 0.0 0.0 0.0 15.0 0.0 0.0 0.0 15.0" Properties=species:S:1:pos:R:3:forces:R:3 energy=        0.8383731943 pbc="T T T"
       O     0.0000000000     0.0000000000     0.0000000000     -3.376102345     -0.745876351     -0.000000000
       H     0.9578900000     0.0000000000     0.0000000000     -0.635238336      1.831872735     -0.000000000
       H    -0.7981600000     0.6535300000     0.0000000000      4.011340681     -1.085996384     -0.000000000
