       3
Lattice="15.0 0.0 0.0 0.0 15.0 0.0 0.0 0.0 15.0" Properties=species:S:1:pos:R:3:forces:R:3 energy=        3.2686678938 pbc="T T T"
       O     0.0000000000     0.0000000000     0.0000000000      6.779334315      5.834208894     -0.000000000
       H     1.2526300000     0.0000000000     0.0000000000     -5.550172360     -0.501611716     -0.000000000
       H     0.2015100000     1.3854200000     0.0000000000     -1.229161955     -5.332597126     -0.000000000
