       3
Lattice="15.0 0.0 0.0 0.0 15.0 0.0 0.0 0.0 15.0" Properties=species:S:1:pos:R:3:forces:R:3 energy=        0.9522082235 pbc="T T T"
       O     0.0000000000     0.0000000000     0.0000000000     -2.341469427      0.075819194     -0.000000000
       H     0.9947400000     0.0000000000     0.0000000000     -2.220634052      1.809751159     -0.000000000
       H    -0.7888100000     0.7206300000     0.0000000000      4.562103480     -1.885570353     -0.000000000
