       3
Lattice="15.0 0.0 0.0 0.0 15.0 0.0 0.0 0.0 15.0" Properties=species:S:1:pos:R:3:forces:R:3 energy=        1.7455474284 pbc="T T T"
       O     0.0000000000     0.0000000000     0.0000000000     -7.905560461    -11.579297860     -0.000000000
       H     0.8473700000     0.0000000000     0.0000000000      9.665079182     -2.927076810     -0.000000000
       H     0.0730700000     0.8072300000     0.0000000000     -1.759518670     14.506374669     -0.000000000
