       3
Lattice="15.0 0.0 0.0 0.0 15.0 0.0 0.0 0.0 15.0" Properties=species:S:1:pos:R:3:forces:R:3 energy=        2.3442184460 pbc="T T T"
       O     0.0000000000     0.0000000000     0.0000000000      4.424852426      6.018602946     -0.000000000
       H     1.0684200000     0.0000000000     0.0000000000     -3.491327725     -0.575249277     -0.000000000
       H     0.1262100000     1.3943000000     0.0000000000     -0.933524701     -5.443353669     -0.000000000
