       3
Lattice="15.0 0.0 0.0 0.0 15.0 0.0 0.0 0.0 15.0" Properties=species:S:1:pos:R:3:forces:R:3 energy=        2.9976928412 pbc="T T T"
       O     0.0000000000     0.0000000000     0.0000000000      8.330100239      5.500238737     -0.000000000
       H     1.2526300000     0.0000000000     0.0000000000     -5.038732392     -1.395509220     -0.000000000
       H     0.5202200000     1.1798800000     0.0000000000     -3.291367847     -4.104729517     -0.000000000
