       3
Lattice="15.0 0.0 0.0 0.0 15.0 0.0 0.0 0.0 15.0" Properties=species:S:1:pos:R:3:forces:R:3 energy=        2.2464646575 pbc="T T T"
       O     0.0000000000     0.0000000000     0.0000000000     -7.375456538    -17.548028272     -0.000000000
       H     0.8473700000     0.0000000000     0.0000000000      9.519801758     -2.621401553     -0.000000000
       H     0.0279300000     0.7731800000     0.0000000000     -2.144345220     20.169429773     -0.000000000
