       3
Lattice="15.0 0.0 0.0 0.0 15.0 0.0 0.0 0.0 15.0" Properties=species:S:1:pos:R:3:forces:R:3 energy=        1.9971650330 pbc="T T T"
       O     0.0000000000     0.0000000000     0.0000000000    -11.234785146      6.415886755     -0.000000000
       H     0.8105300000     0.0000000000     0.0000000000     14.324300628     -3.017485735     -0.000000000
       H     0.2856300000     1.1058200000     0.0000000000     -3.089515482     -3.398401019     -0.000000000
