       3
Lattice="15.0 0.0 0.0 0.0 15.0 0.0 0.0 0.0 15.0" Properties=species:S:1:pos:R:3:forces:R:3 energy=        1.6547895893 pbc="T T T"
       O     0.0000000000     0.0000000000     0.0000000000     -5.380467027      1.565495626     -0.000000000
       H     0.9578900000     0.0000000000     0.0000000000     -0.194395237      1.935087098     -0.000000000
       H    -0.8519000000     0.8674200000     0.0000000000      5.574862264     -3.500582724     -0.000000000
