       3
Lattice="15.0 0.0 0.0 0.0 15.0 0.0 0.0 0.0 15.0" Properties=species:S:1:pos:R:3:forces:R:3 energy=        4.1275297107 pbc="T T T"
       O     0.0000000000     0.0000000000     0.0000000000    -31.335056583     -7.788158796     -0.000000000
       H     0.7000000000     0.0000000000     0.0000000000     35.944513326      1.688209347     -0.000000000
       H    -0.6256100000     0.5715300000     0.0000000000     -4.609456692      6.099949398     -0.000000000
