       3
Lattice="15.0 0.0 0.0 0.0 15.0 0.0 0.0 0.0 15.0" Properties=species:S:1:pos:R:3:forces:R:3 energy=        2.3660702039 pbc="T T T"
       O     0.0000000000     0.0000000000     0.0000000000      5.770844695      5.875966046     -0.000000000
       H     1.2526300000     0.0000000000     0.0000000000     -5.707123267     -0.166807287     -0.000000000
       H    -0.0226200000     1.2524300000     0.0000000000     -0.063721428     -5.709158759     -0.000000000
