       3
Lattice="15.0 0.0 0.0 0.0 15.0 0.0 0.0 0.0 15.0" Properties=species:S:1:pos:R:3:forces:R:3 energy=        3.3564846855 pbc="T T T"
       O     0.0000000000     0.0000000000     0.0000000000      7.425911376      5.761098616     -0.000000000
       H     1.4000000000     0.0000000000     0.0000000000     -5.304067124     -0.707311842     -0.000000000
       H     0.3132700000     1.2128300000     0.0000000000     -2.121844252     -5.053786825     -0.000000000
