       3
Lattice="15.0 0.0 0.0 0.0 15.0 0.0 0.0 0.0 15.0" Properties=species:S:1:pos:R:3:forces:R:3 energy=        2.5115829218 pbc="T T T"
       O     0.0000000000     0.0000000000     0.0000000000      1.169230900      0.990654178     -0.000000000
       H     1.2526300000     0.0000000000     0.0000000000     -6.163650411      1.596235544     -0.000000000
       H    -0.8002700000     0.8148500000     0.0000000000      4.994419511     -2.586889722     -0.000000000
