       3
Lattice="15.0 0.0 0.0 0.0 15.0 0.0 0.0 0.0 15.0" Properties=species:S:1:pos:R:3:forces:R:3 energy=        4.1196575874 pbc="T T T"
       O     0.0000000000     0.0000000000     0.0000000000      1.062888429      1.799705854     -0.000000000
       H     1.2894700000     0.0000000000     0.0000000000     -5.786731138      1.488441530     -0.000000000
       H    -0.9254600000     1.0504900000     0.0000000000      4.723842708     -3.288147384     -0.000000000
