       3
Lattice="15.0 0.0 0.0 0.0 15.0 0.0 0.0 0.0 15.0" Properties=species:S:1:pos:R:3:forces:R:3 energy=        5.2901426784 pbc="T T T"
       O     0.0000000000     0.0000000000     0.0000000000    -35.064768672      7.391548154     -0.000000000
       H     0.7000000000     0.0000000000     0.0000000000     37.436715353     -2.508792066     -0.000000000
       H     0.2544200000     1.2641200000     0.0000000000     -2.371946682     -4.882756088     -0.000000000
