       3
Lattice="15.0 0.0 0.0 0.0 15.0 0.0 0.0 0.0 15.0" Properties=species:S:1:pos:R:3:forces:R:3 energy=        5.8246864865 pbc="T T T"
       O     0.0000000000     0.0000000000     0.0000000000    -17.263964947    -31.041959323     -0.000000000
       H     0.9210500000     0.0000000000     0.0000000000      5.817829314     -6.874721002     -0.000000000
       H     0.3500000000     0.6062200000     0.0000000000     11.446135633     37.916680325     -0.000000000
