       3
Lattice="15.0 0.0 0.0 0.0 15.0 0.0 0.0 0.0 15.0" Properties=species:S:1:pos:R:3:forces:R:3 energy=        3.7160949395 pbc="T T T"
       O     0.0000000000     0.0000000000     0.0000000000    -32.017149644      2.428441918     -0.000000000
       H     0.7368400000     0.0000000000     0.0000000000     26.934933810      2.028082554     -0.000000000
       H    -0.7531200000     0.9544400000     0.0000000000      5.082215835     -4.456524472     -0.000000000
