       3
Lattice="15.0 0.0 0.0 0.0 15.0 0.0 0.0 0.0 15.0" Properties=species:S:1:pos:R:3:forces:R:3 energy=        0.3538157145 pbc="T T T"
       O     0.0000000000     0.0000000000     0.0000000000     -4.414281639      2.910668639     -0.000000000
       H     0.9210500000     0.0000000000     0.0000000000      2.166820838      0.757848801     -0.000000000
       H    -0.4133200000     0.9852400000     0.0000000000      2.247460801     -3.668517440     -0.000000000
