       3
Lattice="15.0 0.0 0.0 0.0 15.0 0.0 0.0 0.0 15.0" Properties=species:S:1:pos:R:3:forces:R:3 energy=        2.2048773085 pbc="T T T"
       O     0.0000000000     0.0000000000     0.0000000000      5.148539580     -4.801144453     -0.000000000
       H     1.2894700000     0.0000000000     0.0000000000     -4.795736700     -1.833760645     -0.000000000
       H     0.3124000000     0.8271900000     0.0000000000     -0.352802880      6.634905098     -0.000000000
