       3
Lattice="15.0 0.0 0.0 0.0 15.0 0.0 0.0 0.0 15.0" Properties=species:S:1:pos:R:3:forces:R:3 energy=        3.1683804286 pbc="T T T"
       O     0.0000000000     0.0000000000     0.0000000000      2.375797527     -1.323247612     -0.000000000
       H     1.4000000000     0.0000000000     0.0000000000     -5.978587615      1.551613514     -0.000000000
       H    -0.7981600000     0.6535300000     0.0000000000      3.602790139     -0.228365902     -0.000000000
