       3
Lattice="15.0 0.0 0.0 0.0 15.0 0.0 0.0 0.0 15.0" Properties=species:S:1:pos:R:3:forces:R:3 energy=        5.7473337136 pbc="T T T"
       O     0.0000000000     0.0000000000     0.0000000000     -3.200997230    -28.804024360     -0.000000000
       H     0.7368400000     0.0000000000     0.0000000000     26.001420164      1.127730808     -0.000000000
       H    -0.4627300000     0.5252400000     0.0000000000    -22.800422934     27.676293553     -0.000000000
