       3
Lattice="15.0 0.0 0.0 0.0 15.0 0.0 0.0 0.0 15.0" Properties=species:S:1:pos:R:3:forces:R:3 energy=        3.9021696569 pbc="T T T"
       O     0.0000000000     0.0000000000     0.0000000000      2.279500567      3.931398464     -0.000000000
       H     1.4000000000     0.0000000000     0.0000000000     -5.657364376      0.887974708     -0.000000000
       H    -0.5785500000     1.1934800000     0.0000000000      3.377863809     -4.819373171     -0.000000000
