       3
Lattice="15.0 0.0 0.0 0.0 15.0 0.0 0.0 0.0 15.0" Properties=species:S:1:pos:R:3:forces:R:3 energy=        1.5862138979 pbc="T T T"
       O     0.0000000000     0.0000000000     0.0000000000    -13.716373077      1.310506401     -0.000000000
       H     0.8473700000     0.0000000000     0.0000000000      8.418929427      1.983359839     -0.000000000
       H    -0.8002700000     0.8148500000     0.0000000000      5.297443702     -3.293866240     -0.000000000
