       3
Lattice="15.0 0.0 0.0 0.0 15.0 0.0 0.0 0.0 15.0" Properties=species:S:1:pos:R:3:forces:R:3 energy=        1.0117435986 pbc="T T T"
       O     0.0000000000     0.0000000000     0.0000000000      5.370042073     -8.198132033     -0.000000000
       H     1.1052600000     0.0000000000     0.0000000000     -4.210389102     -1.147141154     -0.000000000
       H     0.0305900000     0.8468200000     0.0000000000     -1.159652971      9.345273187     -0.000000000
