       3
Lattice="15.0 0.0 0.0 0.0 15.0 0.0 0.0 0.0 15.0" Properties=species:S:1:pos:R:3:forces:R:3 energy=        2.2990290034 pbc="T T T"
       O     0.0000000000     0.0000000000     0.0000000000      2.081283332    -12.234329688     -0.000000000
       H     1.1421100000     0.0000000000     0.0000000000     -3.602331814     -2.746388850     -0.000000000
       H     0.2863700000     0.7582600000     0.0000000000      1.521048482     14.980718538     -0.000000000
