       3
Lattice="15.0 0.0 0.0 0.0 15.0 0.0 0.0 0.0 15.0" Properties=species:S:1:pos:R:3:forces:R:3 energy=        3.4753717561 pbc="T T T"
       O     0.0000000000     0.0000000000     0.0000000000      2.381182346      3.935007009     -0.000000000
       H     1.3631600000     0.0000000000     0.0000000000     -5.816845609      0.920830953     -0.000000000
       H    -0.5624700000     1.1603300000     0.0000000000      3.435663212     -4.855837962     -0.000000000
