       3
Lattice="15.0 0.0 0.0 0.0 15.0 0.0 0.0 0.0 15.0" Properties=species:S:1:pos:R:3:forces:R:3 energy=        3.8003693094 pbc="T T T"
       O     0.0000000000     0.0000000000     0.0000000000     -2.113193257    -21.671640442     -0.000000000
       H     0.7736800000     0.0000000000     0.0000000000     18.436266312      1.214314187     -0.000000000
       H    -0.4870800000     0.5528900000     0.0000000000    -16.323073055     20.457326255     -0.000000000
