       3
Lattice="15.0 0.0 0.0 0.0 15.0 0.0 0.0 0.0 15.0" Properties=species:S:1:pos:R:3:forces:R:3 energy=        3.4675868208 pbc="T T T"
       O     0.0000000000     0.0000000000     0.0000000000      9.291250582    -35.174153222     -0.000000000
       H     0.9578900000     0.0000000000     0.0000000000     -0.043597034     -0.508207370     -0.000000000
       H    -0.1628000000     0.6808100000     0.0000000000     -9.247653599     35.682360541     -0.000000000
