       3
Lattice="15.0 0.0 0.0 0.0 15.0 0.0 0.0 0.0 15.0" Properties=species:S:1:pos:R:3:forces:R:3 energy=        3.5000742768 pbc="T T T"
       O     0.0000000000     0.0000000000     0.0000000000      1.395933915      2.599514821     -0.000000000
       H     1.2157900000     0.0000000000     0.0000000000     -5.666491642      1.380056163     -0.000000000
       H    -0.8064500000     1.1443900000     0.0000000000      4.270557727     -3.979571035     -0.000000000
