       3
Lattice="15.0 0.0 0.0 0.0 15.0 0.0 0.0 0.0 15.0" Properties=species:S:1:pos:R:3:forces:R:3 energy=        3.6813705170 pbc="T T T"
       O     0.0000000000     0.0000000000     0.0000000000    -34.907908319     -3.547029364     -0.000000000
       H     0.7000000000     0.0000000000     0.0000000000     36.912578294     -1.374676641     -0.000000000
       H    -0.1587800000     0.8698400000     0.0000000000     -2.004669975      4.921706005     -0.000000000
