       3
Lattice="15.0 0.0 0.0 0.0 15.0 0.0 0.0 0.0 15.0" Properties=species:S:1:pos:R:3:forces:R:3 energy=        2.8920609455 pbc="T T T"
       O     0.0000000000     0.0000000000     0.0000000000      5.463017527      5.298079896     -0.000000000
       H     1.0315800000     0.0000000000     0.0000000000     -1.764137144     -2.340354134     -0.000000000
       H     0.7000000000     1.2124400000     0.0000000000     -3.698880383     -2.957725711     -0.000000000
