       3
Lattice="15.0 0.0 0.0 0.0 15.0 0.0 0.0 0.0 15.0" Properties=species:S:1:pos:R:3:forces:R:3 energy=        2.1504763274 pbc="T T T"
       O     0.0000000000     0.0000000000     0.0000000000      5.224636814      5.786999613     -0.000000000
       H     1.2157900000     0.0000000000     0.0000000000     -5.607694547     -0.034076338     -0.000000000
       H    -0.0903900000     1.2493600000     0.0000000000      0.383057785     -5.752923275     -0.000000000
