       3
Lattice="15.0 0.0 0.0 0.0 15.0 0.0 0.0 0.0 15.0" Properties=species:S:1:pos:R:3:forces:R:3 energy=        3.5791405181 pbc="T T T"
       O     0.0000000000     0.0000000000     0.0000000000    -29.333455786      5.416818381     -0.000000000
       H     0.7368400000     0.0000000000     0.0000000000     27.247825745      0.522329058     -0.000000000
       H    -0.3568500000     1.2007200000     0.0000000000      2.085630041     -5.939147439     -0.000000000
