       3
Lattice="15.0 0.0 0.0 0.0 15.0 0.0 0.0 0.0 15.0" Properties=species:S:1:pos:R:3:forces:R:3 energy=        0.6900033217 pbc="T T T"
       O     0.0000000000     0.0000000000     0.0000000000    -10.175391464      3.699096664     -0.000000000
       H     0.8473700000     0.0000000000     0.0000000000      8.822398798      0.225548640     -0.000000000
       H    -0.3043700000     1.0241500000     0.0000000000      1.352992667     -3.924645304     -0.000000000
