       3
Lattice="15.0 0.0 0.0 0.0 15.0 0.0 0.0 0.0 15.0" Properties=species:S:1:pos:R:3:forces:R:3 energy=        1.2589934900 pbc="T T T"
       O     0.0000000000     0.0000000000     0.0000000000     -2.175495538      3.582463399     -0.000000000
       H     0.9947400000     0.0000000000     0.0000000000     -1.711623623      1.279071976     -0.000000000
       H    -0.5887900000     1.0637100000     0.0000000000      3.887119110     -4.861535375     -0.000000000
