       3
Lattice="15.0 0.0 0.0 0.0 15.0 0.0 0.0 0.0 15.0" Properties=species:S:1:pos:R:3:forces:R:3 energy=        3.6974810616 pbc="T T T"
       O     0.0000000000     0.0000000000     0.0000000000    -35.461516765      1.822607966     -0.000000000
       H     0.7000000000     0.0000000000     0.0000000000     37.212605503     -2.381997643     -0.000000000
       H    -0.0172900000     0.9577300000     0.0000000000     -1.751088738      0.559389677     -0.000000000
