       3
Lattice="15.0 0.0 0.0 0.0 15.0 0.0 0.0 0.0 15.0" Properties=species:S:1:pos:R:3:forces:R:3 energy=        3.0230116535 pbc="T T T"
       O     0.0000000000     0.0000000000     0.0000000000     -6.578710732      6.333989316     -0.000000000
       H     0.8473700000     0.0000000000     0.0000000000      9.614786787     -2.390990697     -0.000000000
       H     0.4946300000     1.3097100000     0.0000000000     -3.036076054     -3.942998670     -0.000000000
