       3
Lattice="15.0 0.0 0.0 0.0 15.0 0.0 0.0 0.0 15.0" Properties=species:S:1:pos:R:3:forces:R:3 energy=        2.8267934430 pbc="T T T"
       O     0.0000000000     0.0000000000     0.0000000000      0.708069546      0.858204970     -0.000000000
       H     1.2526300000     0.0000000000     0.0000000000     -6.124869827      1.677001389     -0.000000000
       H    -0.8704100000     0.7951800000     0.0000000000      5.416800280     -2.535206359     -0.000000000
