       3
Lattice="15.0 0.0 0.0 0.0 15.0 0.0 0.0 0.0 15.0" Properties=species:S:1:pos:R:3:forces:R:3 energy=        0.4786724625 pbc="T T T"
       O     0.0000000000     0.0000000000     0.0000000000     -8.167893532     -2.391698728     -0.000000000
       H     0.8473700000     0.0000000000     0.0000000000      8.552241034      0.436780908     -0.000000000
       H    -0.3563100000     0.8493400000     0.0000000000     -0.384347502      1.954917769     -0.000000000
