       3
Lattice="15.0 0.0 0.0 0.0 15.0 0.0 0.0 0.0 15.0" Properties=species:S:1:pos:R:3:forces:R:3 energy=        1.6049210672 pbc="T T T"
       O     0.0000000000     0.0000000000     0.0000000000    -17.469114034     -4.881417931     -0.000000000
       H     0.7736800000     0.0000000000     0.0000000000     19.088709192      0.512456635     -0.000000000
       H    -0.3857000000     0.7956500000     0.0000000000     -1.619595159      4.368961245     -0.000000000
