       3
Lattice="15.0 0.0 0.0 0.0 15.0 0.0 0.0 0.0 15.0" Properties=species:S:1:pos:R:3:forces:R:3 energy=        4.9136749381 pbc="T T T"
       O     0.0000000000     0.0000000000     0.0000000000    -12.735431452    -33.249767781     -0.000000000
       H     0.8842100000     0.0000000000     0.0000000000      7.156492084     -4.919818660     -0.000000000
       H     0.2115000000     0.6672800000     0.0000000000      5.578939367     38.169586441     -0.000000000
