       3
Lattice="15.0 0.0 0.0 0.0 15.0 0.0 0.0 0.0 15.0" Properties=species:S:1:pos:R:3:forces:R:3 energy=        2.3408984310 pbc="T T T"
       O     0.0000000000     0.0000000000     0.0000000000      4.837746643     -4.814602641     -0.000000000
       H     1.2894700000     0.0000000000     0.0000000000     -4.583527413     -2.061799657     -0.000000000
       H     0.3567200000     0.8090600000     0.0000000000     -0.254219231      6.876402350     -0.000000000
