       3
Lattice="15.0 0.0 0.0 0.0 15.0 0.0 0.0 0.0 15.0" Properties=species:S:1:pos:R:3:forces:R:3 energy=        1.5634390726 pbc="T T T"
       O     0.0000000000     0.0000000000     0.0000000000    -20.384560350      3.012639821     -0.000000000
       H     0.7736800000     0.0000000000     0.0000000000     19.449562303      0.036718816     -0.000000000
       H    -0.2938800000     0.9888300000     0.0000000000      0.934998098     -3.049358688     -0.000000000
