       3
Lattice="15.0 0.0 0.0 0.0 15.0 0.0 0.0 0.0 15.0" Properties=species:S:1:pos:R:3:forces:R:3 energy=        2.3843366930 pbc="T T T"
       O     0.0000000000     0.0000000000     0.0000000000      4.323101279      5.449896667     -0.000000000
       H     1.2157900000     0.0000000000     0.0000000000     -5.670972306      0.309439611     -0.000000000
       H    -0.2315500000     1.2685100000     0.0000000000      1.347871078     -5.759336329     -0.000000000
