       3
Lattice="15.0 0.0 0.0 0.0 15.0 0.0 0.0 0.0 15.0" Properties=species:S:1:pos:R:3:forces:R:3 energy=        1.6609924030 pbc="T T T"
       O     0.0000000000     0.0000000000     0.0000000000      5.853210590     -0.551518652     -0.000000000
       H     1.3263200000     0.0000000000     0.0000000000     -6.032838997      0.176285715     -0.000000000
       H    -0.1720100000     0.9423200000     0.0000000000      0.179628407      0.375232989     -0.000000000
