       3
Lattice="15.0 0.0 0.0 0.0 15.0 0.0 0.0 0.0 15.0" Properties=species:S:1:pos:R:3:forces:R:3 energy=        2.1541786786 pbc="T T T"
       O     0.0000000000     0.0000000000     0.0000000000      1.559402109      4.911657872     -0.000000000
       H     1.0684200000     0.0000000000     0.0000000000     -3.760673225      0.665134777     -0.000000000
       H    -0.3883400000     1.3066700000     0.0000000000      2.201271117     -5.576792649     -0.000000000
