       3
Lattice="15.0 0.0 0.0 0.0 15.0 0.0 0.0 0.0 15.0" Properties=species:S:1:pos:R:3:forces:R:3 energy=        2.3057103157 pbc="T T T"
       O     0.0000000000     0.0000000000     0.0000000000      4.992752458     -1.612997653     -0.000000000
       H     1.4000000000     0.0000000000     0.0000000000     -6.001085858      0.848868930     -0.000000000
       H    -0.4178400000     0.8619500000     0.0000000000      1.008333348      0.764128724     -0.000000000
