       3
Lattice="15.0 0.0 0.0 0.0 15.0 0.0 0.0 0.0 15.0" Properties=species:S:1:pos:R:3:forces:R:3 energy=        2.0755621300 pbc="T T T"
       O     0.0000000000     0.0000000000     0.0000000000      0.153544142      4.616789276     -0.000000000
       H     1.0315800000     0.0000000000     0.0000000000     -2.782827364      0.844543407     -0.000000000
       H    -0.4585100000     1.2837300000     0.0000000000      2.629283222     -5.461332734     -0.000000000
