       3
Lattice="15.0 0.0 0.0 0.0 15.0 0.0 0.0 0.0 15.0" Properties=species:S:1:pos:R:3:forces:R:3 energy=        3.7799476731 pbc="T T T"
       O     0.0000000000     0.0000000000     0.0000000000     13.479227111    -19.100136929     -0.000000000
       H     1.4000000000     0.0000000000     0.0000000000     -6.194524541      0.791017539     -0.000000000
       H    -0.3374800000     0.6961900000     0.0000000000     -7.284702569     18.309119390     -0.000000000
