       3
Lattice="15.0 0.0 0.0 0.0 15.0 0.0 0.0 0.0 15.0" Properties=species:S:1:pos:R:3:forces:R:3 energy=        2.4847841883 pbc="T T T"
       O     0.0000000000     0.0000000000     0.0000000000     -5.777335397      6.243797031     -0.000000000
       H     0.8473700000     0.0000000000     0.0000000000     10.047159074     -4.020423724     -0.000000000
       H     0.5500000000     1.0842700000     0.0000000000     -4.269823728     -2.223373307     -0.000000000
