       3
Lattice="15.0 0.0 0.0 0.0 15.0 0.0 0.0 0.0 15.0" Properties=species:S:1:pos:R:3:forces:R:3 energy=        3.3493763014 pbc="T T T"
       O     0.0000000000     0.0000000000     0.0000000000     -8.439633244    -16.312762361     -0.000000000
       H     0.9210500000     0.0000000000     0.0000000000      5.067637519     -5.923865669     -0.000000000
       H     0.3500000000     0.6899900000     0.0000000000      3.371995777     22.236628030     -0.000000000
