       3
Lattice="15.0 0.0 0.0 0.0 15.0 0.0 0.0 0.0 15.0" Properties=species:S:1:pos:R:3:forces:R:3 energy=        1.4283996335 pbc="T T T"
       O     0.0000000000     0.0000000000     0.0000000000     -6.398402988    -11.967946769     -0.000000000
       H     0.8473700000     0.0000000000     0.0000000000      9.172473016     -1.702921515     -0.000000000
       H    -0.0584900000     0.8084200000     0.0000000000     -2.774070028     13.670868283     -0.000000000
