       3
Lattice="15.0 0.0 0.0 0.0 15.0 0.0 0.0 0.0 15.0" Properties=species:S:1:pos:R:3:forces:R:3 energy=        0.2097795326 pbc="T T T"
       O     0.0000000000     0.0000000000     0.0000000000     -5.726698885      1.554041613     -0.000000000
       H     0.8842100000     0.0000000000     0.0000000000      5.109374822      0.126967973     -0.000000000
       H    -0.2833800000     0.9535200000     0.0000000000      0.617324063     -1.681009586     -0.000000000
