       3
Lattice="15.0 0.0 0.0 0.0 15.0 0.0 0.0 0.0 15.0" Properties=species:S:1:pos:R:3:forces:R:3 energy=        1.0571072131 pbc="T T T"
       O     0.0000000000     0.0000000000     0.0000000000      3.218065147     -0.910600426     -0.000000000
       H     1.1421100000     0.0000000000     0.0000000000     -5.704053317      1.423213230     -0.000000000
       H    -0.6161900000     0.7809100000     0.0000000000      2.485988119     -0.512612855     -0.000000000
