       3
Lattice="15.0 0.0 0.0 0.0 15.0 0.0 0.0 0.0 15.0" Properties=species:S:1:pos:R:3:forces:R:3 energy=        3.4484455209 pbc="T T T"
       O     0.0000000000     0.0000000000     0.0000000000    -37.025185570     -0.037371362     -0.000000000
       H     0.7000000000     0.0000000000     0.0000000000     36.637869522      0.332506788     -0.000000000
       H    -0.3705600000     0.8833100000     0.0000000000      0.387316048     -0.295135426     -0.000000000
