       3
Lattice="15.0 0.0 0.0 0.0 15.0 0.0 0.0 0.0 15.0" Properties=species:S:1:pos:R:3:forces:R:3 energy=        1.8011818391 pbc="T T T"
       O     0.0000000000     0.0000000000     0.0000000000      3.747006366      2.405227468     -0.000000000
       H     1.2894700000     0.0000000000     0.0000000000     -6.134747804      0.797731772     -0.000000000
       H    -0.4133200000     0.9852400000     0.0000000000      2.387741387     -3.202959240     -0.000000000
