       3
Lattice="15.0 0.0 0.0 0.0 15.0 0.0 0.0 0.0 15.0" Properties=species:S:1:pos:R:3:forces:R:3 energy=        3.6814395387 pbc="T T T"
       O     0.0000000000     0.0000000000     0.0000000000      2.776890581    -34.976737452     -0.000000000
       H     0.8842100000     0.0000000000     0.0000000000      5.203488503     -1.088089777     -0.000000000
       H    -0.1257000000     0.6886200000     0.0000000000     -7.980379084     36.064827229     -0.000000000
