       3
Lattice="15.0 0.0 0.0 0.0 15.0 0.0 0.0 0.0 15.0" Properties=species:S:1:pos:R:3:forces:R:3 energy=        1.5388942664 pbc="T T T"
       O     0.0000000000     0.0000000000     0.0000000000      5.020095742    -18.552646374     -0.000000000
       H     0.9947400000     0.0000000000     0.0000000000     -1.483091782     -0.828952693     -0.000000000
       H    -0.0975200000     0.7675100000     0.0000000000     -3.537003960     19.381599016     -0.000000000
