       3
Lattice="15.0 0.0 0.0 0.0 15.0 0.0 0.0 0.0 15.0" Properties=species:S:1:pos:R:3:forces:R:3 energy=        2.2298075531 pbc="T T T"
       O     0.0000000000     0.0000000000     0.0000000000      5.502372188      4.394740011     -0.000000000
       H     1.3631600000     0.0000000000     0.0000000000     -5.797005425     -0.017799293     -0.000000000
       H    -0.0797500000     1.1023800000     0.0000000000      0.294633186     -4.376940719     -0.000000000
