       3
Lattice="15.0 0.0 0.0 0.0 15.0 0.0 0.0 0.0 15.0" Properties=species:S:1:pos:R:3:forces:R:3 energy=        1.3815715593 pbc="T T T"
       O     0.0000000000     0.0000000000     0.0000000000    -12.160712491      5.239845924     -0.000000000
       H     0.8105300000     0.0000000000     0.0000000000     14.076039931     -2.146904292     -0.000000000
       H     0.0963200000     1.0640700000     0.0000000000     -1.915327441     -3.092941632     -0.000000000
