       3
Lattice="15.0 0.0 0.0 0.0 15.0 0.0 0.0 0.0 15.0" Properties=species:S:1:pos:R:3:forces:R:3 energy=        2.0201366402 pbc="T T T"
       O     0.0000000000     0.0000000000     0.0000000000      0.140458764    -11.852393008     -0.000000000
       H     1.0315800000     0.0000000000     0.0000000000     -1.110410100     -3.567711790     -0.000000000
       H     0.2863700000     0.7582600000     0.0000000000      0.969951337     15.420104798     -0.000000000
