       3
Lattice="15.0 0.0 0.0 0.0 15.0 0.0 0.0 0.0 15.0" Properties=species:S:1:pos:R:3:forces:R:3 energy=        3.2143396977 pbc="T T T"
       O     0.0000000000     0.0000000000     0.0000000000      7.109557860    -26.631659913     -0.000000000
       H     1.1789500000     0.0000000000     0.0000000000     -5.329084329     -0.803111242     -0.000000000
       H    -0.0133000000     0.7367200000     0.0000000000     -1.780473479     27.434771156     -0.000000000
