       3
Lattice="15.0 0.0 0.0 0.0 15.0 0.0 0.0 0.0 15.0" Properties=species:S:1:pos:R:3:forces:R:3 energy=        1.8955809263 pbc="T T T"
       O     0.0000000000     0.0000000000     0.0000000000      2.623866831     -0.856089105     -0.000000000
       H     1.2157900000     0.0000000000     0.0000000000     -6.316070826      1.628890318     -0.000000000
       H    -0.7616100000     0.6957800000     0.0000000000      3.692203996     -0.772801213     -0.000000000
