       3
Lattice="15.0 0.0 0.0 0.0 15.0 0.0 0.0 0.0 15.0" Properties=species:S:1:pos:R:3:forces:R:3 energy=        1.7860326428 pbc="T T T"
       O     0.0000000000     0.0000000000     0.0000000000      3.154860562      6.241219550     -0.000000000
       H     1.0315800000     0.0000000000     0.0000000000     -2.532335001     -0.535024040     -0.000000000
       H     0.0478800000     1.3254600000     0.0000000000     -0.622525561     -5.706195561     -0.000000000
