       3
Lattice="15.0 0.0 0.0 0.0 15.0 0.0 0.0 0.0 15.0" Properties=species:S:1:pos:R:3:forces:R:3 energy=        4.5910263261 pbc="T T T"
       O     0.0000000000     0.0000000000     0.0000000000    -33.226920433      0.737694840     -0.000000000
       H     0.7368400000     0.0000000000     0.0000000000     26.902036941      2.554488459     -0.000000000
       H    -0.9977000000     0.8169100000     0.0000000000      6.324883441     -3.292183298     -0.000000000
