       3
Lattice="15.0 0.0 0.0 0.0 15.0 0.0 0.0 0.0 15.0" Properties=species:S:1:pos:R:3:forces:R:3 energy=        4.9988515315 pbc="T T T"
       O     0.0000000000     0.0000000000     0.0000000000     -9.033997345    -33.037765056     -0.000000000
       H     1.0315800000     0.0000000000     0.0000000000     -0.552178655     -4.257752856     -0.000000000
       H     0.2824000000     0.6405100000     0.0000000000      9.586175949     37.295517911     -0.000000000
