       3
Lattice="15.0 0.0 0.0 0.0 15.0 0.0 0.0 0.0 15.0" Properties=species:S:1:pos:R:3:forces:R:3 energy=        1.6576674002 pbc="T T T"
       O     0.0000000000     0.0000000000     0.0000000000      2.456098054      5.588444894     -0.000000000
       H     1.0684200000     0.0000000000     0.0000000000     -3.743152332      0.260495862     -0.000000000
       H    -0.2315500000     1.2685100000     0.0000000000      1.287054278     -5.848940757     -0.000000000
