       3
Lattice="15.0 0.0 0.0 0.0 15.0 0.0 0.0 0.0 15.0" Properties=species:S:1:pos:R:3:forces:R:3 energy=        3.4474312410 pbc="T T T"
       O     0.0000000000     0.0000000000     0.0000000000      6.460663052      5.789022969     -0.000000000
       H     1.2894700000     0.0000000000     0.0000000000     -5.668963913     -0.320851303     -0.000000000
       H     0.1262100000     1.3943000000     0.0000000000     -0.791699139     -5.468171666     -0.000000000
