       3
Lattice="15.0 0.0 0.0 0.0 15.0 0.0 0.0 0.0 15.0" Properties=species:S:1:pos:R:3:forces:R:3 energy=        0.9820138124 pbc="T T T"
       O     0.0000000000     0.0000000000     0.0000000000      7.370238790     -8.382037010     -0.000000000
       H     0.9947400000     0.0000000000     0.0000000000     -2.622541529      1.561659384     -0.000000000
       H    -0.6256100000     0.5715300000     0.0000000000     -4.747697261      6.820377626     -0.000000000
