       3
Lattice="15.0 0.0 0.0 0.0 15.0 0.0 0.0 0.0 15.0" Properties=species:S:1:pos:R:3:forces:R:3 energy=        5.2273598611 pbc="T T T"
       O     0.0000000000     0.0000000000     0.0000000000    -28.478612124     -5.302383976     -0.000000000
       H     0.7368400000     0.0000000000     0.0000000000     29.402619317     -9.339423616     -0.000000000
       H     0.4236900000     0.7338400000     0.0000000000     -0.924007193     14.641807592     -0.000000000
