       3
Lattice="15.0 0.0 0.0 0.0 15.0 0.0 0.0 0.0 15.0" Properties=species:S:1:pos:R:3:forces:R:3 energy=        0.9924006679 pbc="T T T"
       O     0.0000000000     0.0000000000     0.0000000000      0.767760460     -1.792361803     -0.000000000
       H     1.0315800000     0.0000000000     0.0000000000     -3.783641621      1.750473267     -0.000000000
       H    -0.8026400000     0.5876000000     0.0000000000      3.015881161      0.041888587     -0.000000000
