       3
Lattice="15.0 0.0 0.0 0.0 15.0 0.0 0.0 0.0 15.0" Properties=species:S:1:pos:R:3:forces:R:3 energy=        3.0251292762 pbc="T T T"
       O     0.0000000000     0.0000000000     0.0000000000      7.842655924      5.826636220     -0.000000000
       H     1.2526300000     0.0000000000     0.0000000000     -5.297448021     -1.036594413     -0.000000000
       H     0.4007300000     1.2643300000     0.0000000000     -2.545207955     -4.790041807     -0.000000000
