       3
Lattice="15.0 0.0 0.0 0.0 15.0 0.0 0.0 0.0 15.0" Properties=species:S:1:pos:R:3:forces:R:3 energy=        3.0712140061 pbc="T T T"
       O     0.0000000000     0.0000000000     0.0000000000      5.265484514    -19.132946123     -0.000000000
       H     1.2894700000     0.0000000000     0.0000000000     -5.589661850     -0.889330862     -0.000000000
       H     0.0697500000     0.7705300000     0.0000000000      0.324177335     20.022276985     -0.000000000
