       3
Lattice="15.0 0.0 0.0 0.0 15.0 0.0 0.0 0.0 15.0" Properties=species:S:1:pos:R:3:forces:R:3 energy=        0.8126071901 pbc="T T T"
       O     0.0000000000     0.0000000000     0.0000000000      5.243177510     -4.516123443     -0.000000000
       H     1.1052600000     0.0000000000     0.0000000000     -4.078532277     -1.351058836     -0.000000000
       H     0.0797100000     0.8806100000     0.0000000000     -1.164645233      5.867182279     -0.000000000
