       3
Lattice="15.0 0.0 0.0 0.0 15.0 0.0 0.0 0.0 15.0" Properties=species:S:1:pos:R:3:forces:R:3 energy=        1.8482015821 pbc="T T T"
       O     0.0000000000     0.0000000000     0.0000000000      0.086172774    -18.001390798     -0.000000000
       H     0.9578900000     0.0000000000     0.0000000000      0.922066677     -2.288463282     -0.000000000
       H     0.0697500000     0.7705300000     0.0000000000     -1.008239452     20.289854080     -0.000000000
