       3
Lattice="15.0 0.0 0.0 0.0 15.0 0.0 0.0 0.0 15.0" Properties=species:S:1:pos:R:3:forces:R:3 energy=        5.6545843003 pbc="T T T"
       O     0.0000000000     0.0000000000     0.0000000000    -34.752230109      2.392490268     -0.000000000
       H     0.7000000000     0.0000000000     0.0000000000     38.415345813     -8.563180518     -0.000000000
       H     0.4789500000     0.8295600000     0.0000000000     -3.663115704      6.170690249     -0.000000000
