       3
Lattice="15.0 0.0 0.0 0.0 15.0 0.0 0.0 0.0 15.0" Properties=species:S:1:pos:R:3:forces:R:3 energy=        1.9966744226 pbc="T T T"
       O     0.0000000000     0.0000000000     0.0000000000      5.031104028     -2.955134757     -0.000000000
       H     1.2526300000     0.0000000000     0.0000000000     -6.535150671      1.562179261     -0.000000000
       H    -0.7072000000     0.6460800000     0.0000000000      1.504046643      1.392955548     -0.000000000
