       3
Lattice="15.0 0.0 0.0 0.0 15.0 0.0 0.0 0.0 15.0" Properties=species:S:1:pos:R:3:forces:R:3 energy=        1.4823370795 pbc="T T T"
       O     0.0000000000     0.0000000000     0.0000000000     -2.878312370     -7.075674458     -0.000000000
       H     0.9210500000     0.0000000000     0.0000000000      3.913621900     -3.981483731     -0.000000000
       H     0.2560200000     0.8077700000     0.0000000000     -1.035309478     11.057158138     -0.000000000
