       3
Lattice="15.0 0.0 0.0 0.0 15.0 0.0 0.0 0.0 15.0" Properties=species:S:1:pos:R:3:forces:R:3 energy=        2.1396538557 pbc="T T T"
       O     0.0000000000     0.0000000000     0.0000000000      4.483666953      6.155318028     -0.000000000
       H     1.0684200000     0.0000000000     0.0000000000     -3.488522393     -0.628844308     -0.000000000
       H     0.1228900000     1.3576100000     0.0000000000     -0.995144560     -5.526473720     -0.000000000
