       3
Lattice="15.0 0.0 0.0 0.0 15.0 0.0 0.0 0.0 15.0" Properties=species:S:1:pos:R:3:forces:R:3 energy=        4.2133638319 pbc="T T T"
       O     0.0000000000     0.0000000000     0.0000000000    -40.332064272      3.421703401     -0.000000000
       H     0.7000000000     0.0000000000     0.0000000000     36.735224543      1.357882033     -0.000000000
       H    -0.5531000000     0.9992400000     0.0000000000      3.596839729     -4.779585434     -0.000000000
