       3
Lattice="15.0 0.0 0.0 0.0 15.0 0.0 0.0 0.0 15.0" Properties=species:S:1:pos:R:3:forces:R:3 energy=        3.2135364611 pbc="T T T"
       O     0.0000000000     0.0000000000     0.0000000000      5.252719393      5.697523278     -0.000000000
       H     1.3631600000     0.0000000000     0.0000000000     -5.742999943      0.068946221     -0.000000000
       H    -0.0930500000     1.2861100000     0.0000000000      0.490280499     -5.766469498     -0.000000000
