       3
Lattice="15.0 0.0 0.0 0.0 15.0 0.0 0.0 0.0 15.0" Properties=species:S:1:pos:R:3:forces:R:3 energy=        3.6070766712 pbc="T T T"
       O     0.0000000000     0.0000000000     0.0000000000     17.009021539    -17.796588090     -0.000000000
       H     1.3263200000     0.0000000000     0.0000000000     -6.613052254      1.226656928     -0.000000000
       H    -0.4792500000     0.6073700000     0.0000000000    -10.395969286     16.569931162     -0.000000000
