       3
Lattice="15.0 0.0 0.0 0.0 15.0 0.0 0.0 0.0 15.0" Properties=species:S:1:pos:R:3:forces:R:3 energy=        2.0062759248 pbc="T T T"
       O     0.0000000000     0.0000000000     0.0000000000      6.953899395      6.073939077     -0.000000000
       H     1.1421100000     0.0000000000     0.0000000000     -4.522930082     -1.261485416     -0.000000000
       H     0.3132700000     1.2128300000     0.0000000000     -2.430969262     -4.812453661     -0.000000000
