       3
Lattice="15.0 0.0 0.0 0.0 15.0 0.0 0.0 0.0 15.0" Properties=species:S:1:pos:R:3:forces:R:3 energy=        2.3557875001 pbc="T T T"
       O     0.0000000000     0.0000000000     0.0000000000     10.568297196    -24.401817656     -0.000000000
       H     0.9210500000     0.0000000000     0.0000000000      1.634980493      0.657691636     -0.000000000
       H    -0.3568400000     0.6446700000     0.0000000000    -12.203277689     23.744125969     -0.000000000
