       3
Lattice="15.0 0.0 0.0 0.0 15.0 0.0 0.0 0.0 15.0" Properties=species:S:1:pos:R:3:forces:R:3 energy=        1.3174918963 pbc="T T T"
       O     0.0000000000     0.0000000000     0.0000000000      4.867397956      0.582483542     -0.000000000
       H     1.2526300000     0.0000000000     0.0000000000     -6.129113589      0.621877746     -0.000000000
       H    -0.3345900000     0.9367800000     0.0000000000      1.261715633     -1.204361288     -0.000000000
