       3
Lattice="15.0 0.0 0.0 0.0 15.0 0.0 0.0 0.0 15.0" Properties=species:S:1:pos:R:3:forces:R:3 energy=        1.9572577830 pbc="T T T"
       O     0.0000000000     0.0000000000     0.0000000000      2.508146411      3.604822803     -0.000000000
       H     1.2157900000     0.0000000000     0.0000000000     -5.887111115      1.000422009     -0.000000000
       H    -0.5142700000     1.0608700000     0.0000000000      3.378964704     -4.605244811     -0.000000000
