       3
Lattice="15.0 0.0 0.0 0.0 15.0 0.0 0.0 0.0 15.0" Properties=species:S:1:pos:R:3:forces:R:3 energy=        0.8205597612 pbc="T T T"
       O     0.0000000000     0.0000000000     0.0000000000      6.666609335     -8.692929963     -0.000000000
       H     0.9947400000     0.0000000000     0.0000000000     -2.479769594      1.419565552     -0.000000000
       H    -0.5601500000     0.6358200000     0.0000000000     -4.186839740      7.273364411     -0.000000000
