       3
Lattice="15.0 0.0 0.0 0.0 15.0 0.0 0.0 0.0 15.0" Properties=species:S:1:pos:R:3:forces:R:3 energy=        0.5800311419 pbc="T T T"
       O     0.0000000000     0.0000000000     0.0000000000     -2.760769962     -5.688483532     -0.000000000
       H     0.8842100000     0.0000000000     0.0000000000      4.446810274      1.358549749     -0.000000000
       H    -0.5477200000     0.6941400000     0.0000000000     -1.686040312      4.329933732     -0.000000000
