       3
Lattice="15.0 0.0 0.0 0.0 15.0 0.0 0.0 0.0 15.0" Properties=species:S:1:pos:R:3:forces:R:3 energy=        2.6080661563 pbc="T T T"
       O     0.0000000000     0.0000000000     0.0000000000      6.187310228    -13.393701535     -0.000000000
       H     1.3263200000     0.0000000000     0.0000000000     -5.737262678     -0.583194452     -0.000000000
       H     0.0292600000     0.8100000000     0.0000000000     -0.450047550     13.976896038     -0.000000000
