       3
Lattice="15.0 0.0 0.0 0.0 15.0 0.0 0.0 0.0 15.0" Properties=species:S:1:pos:R:3:forces:R:3 energy=        1.3933854070 pbc="T T T"
       O     0.0000000000     0.0000000000     0.0000000000      3.078081678      4.649417207     -0.000000000
       H     1.1421100000     0.0000000000     0.0000000000     -5.188882676      0.557428747     -0.000000000
       H    -0.3358600000     1.1301000000     0.0000000000      2.110800999     -5.206845954     -0.000000000
