       3
Lattice="15.0 0.0 0.0 0.0 15.0 0.0 0.0 0.0 15.0" Properties=species:S:1:pos:R:3:forces:R:3 energy=        2.6306348499 pbc="T T T"
       O     0.0000000000     0.0000000000     0.0000000000      6.057903665      5.084128839     -0.000000000
       H     1.4000000000     0.0000000000     0.0000000000     -5.577073671     -0.249627444     -0.000000000
       H     0.0412300000     1.1413700000     0.0000000000     -0.480829994     -4.834501395     -0.000000000
