       3
Lattice="15.0 0.0 0.0 0.0 15.0 0.0 0.0 0.0 15.0" Properties=species:S:1:pos:R:3:forces:R:3 energy=        4.8535273640 pbc="T T T"
       O     0.0000000000     0.0000000000     0.0000000000      1.503436057    -30.791495550     -0.000000000
       H     0.7736800000     0.0000000000     0.0000000000     18.547301563      0.801270023     -0.000000000
       H    -0.4032300000     0.5722000000     0.0000000000    -20.050737568     29.990225527     -0.000000000
