       3
Lattice="15.0 0.0 0.0 0.0 15.0 0.0 0.0 0.0 15.0" Properties=species:S:1:pos:R:3:forces:R:3 energy=        4.0623005463 pbc="T T T"
       O     0.0000000000     0.0000000000     0.0000000000     -5.972555650    -23.853537104     -0.000000000
       H     1.0684200000     0.0000000000     0.0000000000     -1.380775661     -4.243024542     -0.000000000
       H     0.3333300000     0.6571300000     0.0000000000      7.353331310     28.096561646     -0.000000000
