       3
Lattice="15.0 0.0 0.0 0.0 15.0 0.0 0.0 0.0 15.0" Properties=species:S:1:pos:R:3:forces:R:3 energy=        0.7496158655 pbc="T T T"
       O     0.0000000000     0.0000000000     0.0000000000     -0.736547458     -8.536282395     -0.000000000
       H     0.8842100000     0.0000000000     0.0000000000      4.466344188      1.153694179     -0.000000000
       H    -0.4881200000     0.6926600000     0.0000000000     -3.729796781      7.382588215     -0.000000000
