       3
Lattice="15.0 0.0 0.0 0.0 15.0 0.0 0.0 0.0 15.0" Properties=species:S:1:pos:R:3:forces:R:3 energy=        1.5169326751 pbc="T T T"
       O     0.0000000000     0.0000000000     0.0000000000     -8.293473057      4.523588799     -0.000000000
       H     0.8842100000     0.0000000000     0.0000000000      5.212084991      0.998890042     -0.000000000
       H    -0.4845800000     1.1551000000     0.0000000000      3.081388118     -5.522478892     -0.000000000
