       3
Lattice="15.0 0.0 0.0 0.0 15.0 0.0 0.0 0.0 15.0" Properties=species:S:1:pos:R:3:forces:R:3 energy=        4.3335743799 pbc="T T T"
       O     0.0000000000     0.0000000000     0.0000000000     26.179729441    -20.386644179     -0.000000000
       H     1.2526300000     0.0000000000     0.0000000000     -6.991000637      1.462266197     -0.000000000
       H    -0.5701100000     0.4668000000     0.0000000000    -19.188728804     18.924377982     -0.000000000
