       3
Lattice="15.0 0.0 0.0 0.0 15.0 0.0 0.0 0.0 15.0" Properties=species:S:1:pos:R:3:forces:R:3 energy=        0.4548343904 pbc="T T T"
       O     0.0000000000     0.0000000000     0.0000000000      0.746509871     -2.214596894     -0.000000000
       H     0.9947400000     0.0000000000     0.0000000000     -2.295942008      1.545472894     -0.000000000
       H    -0.6332000000     0.7187500000     0.0000000000      1.549432189      0.669124000     -0.000000000
