       3
Lattice="15.0 0.0 0.0 0.0 15.0 0.0 0.0 0.0 15.0" Properties=species:S:1:pos:R:3:forces:R:3 energy=        1.6134742780 pbc="T T T"
       O     0.0000000000     0.0000000000     0.0000000000      6.317911789      5.771638138     -0.000000000
       H     1.1789500000     0.0000000000     0.0000000000     -5.158787488     -0.696882877     -0.000000000
       H     0.1062900000     1.1741500000     0.0000000000     -1.159124301     -5.074755261     -0.000000000
