       3
Lattice="15.0 0.0 0.0 0.0 15.0 0.0 0.0 0.0 15.0" Properties=species:S:1:pos:R:3:forces:R:3 energy=        2.5432684148 pbc="T T T"
       O     0.0000000000     0.0000000000     0.0000000000      0.123041691    -17.772178848     -0.000000000
       H     1.0684200000     0.0000000000     0.0000000000     -2.369939215     -2.991987939     -0.000000000
       H     0.2337600000     0.7375200000     0.0000000000      2.246897524     20.764166839     -0.000000000
