       3
Lattice="15.0 0.0 0.0 0.0 15.0 0.0 0.0 0.0 15.0" Properties=species:S:1:pos:R:3:forces:R:3 energy=        1.6109597854 pbc="T T T"
       O     0.0000000000     0.0000000000     0.0000000000     -5.491991971      4.488586555     -0.000000000
       H     0.9210500000     0.0000000000     0.0000000000      2.388385294      1.022195560     -0.000000000
       H    -0.4988300000     1.1890800000     0.0000000000      3.103606676     -5.510782064     -0.000000000
