       3
Lattice="15.0 0.0 0.0 0.0 15.0 0.0 0.0 0.0 15.0" Properties=species:S:1:pos:R:3:forces:R:3 energy=        1.3258282840 pbc="T T T"
       O     0.0000000000     0.0000000000     0.0000000000     -4.957856298      1.837673712     -0.000000000
       H     0.9578900000     0.0000000000     0.0000000000     -0.214022071      1.809208244     -0.000000000
       H    -0.7793300000     0.8846200000     0.0000000000      5.171878369     -3.646881956     -0.000000000
