       3
Lattice="15.0 0.0 0.0 0.0 15.0 0.0 0.0 0.0 15.0" Properties=species:S:1:pos:R:3:forces:R:3 energy=        1.9123775543 pbc="T T T"
       O     0.0000000000     0.0000000000     0.0000000000      6.251207879     -0.133881004     -0.000000000
       H     1.3631600000     0.0000000000     0.0000000000     -5.681572506     -0.413918957     -0.000000000
       H     0.0345800000     0.9572700000     0.0000000000     -0.569635373      0.547799961     -0.000000000
