       3
Lattice="15.0 0.0 0.0 0.0 15.0 0.0 0.0 0.0 15.0" Properties=species:S:1:pos:R:3:forces:R:3 energy=        8.7308109403 pbc="T T T"
       O     0.0000000000     0.0000000000     0.0000000000    -40.282173946    -29.164235775     -0.000000000
       H     0.7368400000     0.0000000000     0.0000000000     30.460182937    -10.994713880     -0.000000000
       H     0.3500000000     0.6062200000     0.0000000000      9.821991060     40.158949655     -0.000000000
