       3
Lattice="15.0 0.0 0.0 0.0 15.0 0.0 0.0 0.0 15.0" Properties=species:S:1:pos:R:3:forces:R:3 energy=        3.4092081473 pbc="T T T"
       O     0.0000000000     0.0000000000     0.0000000000      2.674825657      4.220378974     -0.000000000
       H     1.4000000000     0.0000000000     0.0000000000     -5.725589762      0.784698124     -0.000000000
       H    -0.4845800000     1.1551000000     0.0000000000      3.050764054     -5.005077047     -0.000000000
