       3
Lattice="15.0 0.0 0.0 0.0 15.0 0.0 0.0 0.0 15.0" Properties=species:S:1:pos:R:3:forces:R:3 energy=        2.1395076925 pbc="T T T"
       O     0.0000000000     0.0000000000     0.0000000000    -18.127298139      6.045294558     -0.000000000
       H     0.7736800000     0.0000000000     0.0000000000     20.009380480     -2.179941543     -0.000000000
       H     0.0996400000     1.1007600000     0.0000000000     -1.882082341     -3.865353066     -0.000000000
