       3
Lattice="15.0 0.0 0.0 0.0 15.0 0.0 0.0 0.0 15.0" Properties=species:S:1:pos:R:3:forces:R:3 energy=        2.1120198579 pbc="T T T"
       O     0.0000000000     0.0000000000     0.0000000000    -17.716924324      5.477852645     -0.000000000
       H     0.7736800000     0.0000000000     0.0000000000     20.129322859     -2.755595152     -0.000000000
       H     0.1537900000     1.0572900000     0.0000000000     -2.412398535     -2.722257493     -0.000000000
