       3
Lattice="15.0 0.0 0.0 0.0 15.0 0.0 0.0 0.0 15.0" Properties=species:S:1:pos:R:3:forces:R:3 energy=        1.9889238035 pbc="T T T"
       O     0.0000000000     0.0000000000     0.0000000000    -18.928634137      5.776495571     -0.000000000
       H     0.7736800000     0.0000000000     0.0000000000     19.842306158     -1.417438581     -0.000000000
       H    -0.0199500000     1.1050800000     0.0000000000     -0.913672022     -4.359057042     -0.000000000
