       3
Lattice="15.0 0.0 0.0 0.0 15.0 0.0 0.0 0.0 15.0" Properties=species:S:1:pos:R:3:forces:R:3 energy=        5.3318719783 pbc="T T T"
       O     0.0000000000     0.0000000000     0.0000000000    -43.086768794      0.457199282     -0.000000000
       H     0.7000000000     0.0000000000     0.0000000000     36.531546282      2.533742835     -0.000000000
       H    -0.9810100000     0.7181700000     0.0000000000      6.555222511     -2.990942168     -0.000000000
