       3
Lattice="15.0 0.0 0.0 0.0 15.0 0.0 0.0 0.0 15.0" Properties=species:S:1:pos:R:3:forces:R:3 energy=        0.9936795703 pbc="T T T"
       O     0.0000000000     0.0000000000     0.0000000000      7.935645725    -13.037013305     -0.000000000
       H     1.0315800000     0.0000000000     0.0000000000     -3.357722446      0.495211723     -0.000000000
       H    -0.3135500000     0.7474200000     0.0000000000     -4.577923279     12.541801633     -0.000000000
