       3
Lattice="15.0 0.0 0.0 0.0 15.0 0.0 0.0 0.0 15.0" Properties=species:S:1:pos:R:3:forces:R:3 energy=        4.0963184823 pbc="T T T"
       O     0.0000000000     0.0000000000     0.0000000000     12.402009814    -36.082828559     -0.000000000
       H     1.1421100000     0.0000000000     0.0000000000     -5.330920972     -0.263195316     -0.000000000
       H    -0.1257000000     0.6886200000     0.0000000000     -7.071088893     36.346023927     -0.000000000
