       3
Lattice="15.0 0.0 0.0 0.0 15.0 0.0 0.0 0.0 15.0" Properties=species:S:1:pos:R:3:forces:R:3 energy=        3.8425705309 pbc="T T T"
       O     0.0000000000     0.0000000000     0.0000000000      1.804476589      3.121886046     -0.000000000
       H     1.3263200000     0.0000000000     0.0000000000     -5.818910155      1.159845804     -0.000000000
       H    -0.7237600000     1.1551500000     0.0000000000      4.014433565     -4.281731849     -0.000000000
