       3
Lattice="15.0 0.0 0.0 0.0 15.0 0.0 0.0 0.0 15.0" Properties=species:S:1:pos:R:3:forces:R:3 energy=        2.4007233489 pbc="T T T"
       O     0.0000000000     0.0000000000     0.0000000000     15.305331830    -11.510992821     -0.000000000
       H     1.1789500000     0.0000000000     0.0000000000     -6.592675377      1.519881149     -0.000000000
       H    -0.6271300000     0.5134900000     0.0000000000     -8.712656453      9.991111672     -0.000000000
