       3
Lattice="15.0 0.0 0.0 0.0 15.0 0.0 0.0 0.0 15.0" Properties=species:S:1:pos:R:3:forces:R:3 energy=        2.9607995434 pbc="T T T"
       O     0.0000000000     0.0000000000     0.0000000000      1.997349373      0.349584886     -0.000000000
       H     1.4000000000     0.0000000000     0.0000000000     -5.886292784      1.362990355     -0.000000000
       H    -0.7062700000     0.8016900000     0.0000000000      3.888943411     -1.712575240     -0.000000000
