       3
Lattice="15.0 0.0 0.0 0.0 15.0 0.0 0.0 0.0 15.0" Properties=species:S:1:pos:R:3:forces:R:3 energy=        1.4558397883 pbc="T T T"
       O     0.0000000000     0.0000000000     0.0000000000     -6.468467742      5.080152935     -0.000000000
       H     0.8473700000     0.0000000000     0.0000000000      9.909727683     -3.555293356     -0.000000000
       H     0.3228100000     1.0184900000     0.0000000000     -3.441259941     -1.524859578     -0.000000000
