       3
Lattice="15.0 0.0 0.0 0.0 15.0 0.0 0.0 0.0 15.0" Properties=species:S:1:pos:R:3:forces:R:3 energy=        0.5675063832 pbc="T T T"
       O     0.0000000000     0.0000000000     0.0000000000      5.377640870     -8.796251695     -0.000000000
       H     0.9947400000     0.0000000000     0.0000000000     -2.172074272      0.877658614     -0.000000000
       H    -0.4103700000     0.7413700000     0.0000000000     -3.205566597      7.918593081     -0.000000000
