       3
Lattice="15.0 0.0 0.0 0.0 15.0 0.0 0.0 0.0 15.0" Properties=species:S:1:pos:R:3:forces:R:3 energy=        1.7045037711 pbc="T T T"
       O     0.0000000000     0.0000000000     0.0000000000      5.401527509      4.274335142     -0.000000000
       H     1.0315800000     0.0000000000     0.0000000000     -1.126167833     -3.612408280     -0.000000000
       H     0.5526300000     0.9571800000     0.0000000000     -4.275359676     -0.661926862     -0.000000000
