       3
Lattice="15.0 0.0 0.0 0.0 15.0 0.0 0.0 0.0 15.0" Properties=species:S:1:pos:R:3:forces:R:3 energy=        2.9198042216 pbc="T T T"
       O     0.0000000000     0.0000000000     0.0000000000      4.858126708    -13.255972873     -0.000000000
       H     1.3631600000     0.0000000000     0.0000000000     -5.450127707     -0.859803323     -0.000000000
       H     0.1166700000     0.8020900000     0.0000000000      0.592000999     14.115776195     -0.000000000
