       3
Lattice="15.0 0.0 0.0 0.0 15.0 0.0 0.0 0.0 15.0" Properties=species:S:1:pos:R:3:forces:R:3 energy=        0.9864835819 pbc="T T T"
       O     0.0000000000     0.0000000000     0.0000000000     -5.884779278      5.820049565     -0.000000000
       H     0.8842100000     0.0000000000     0.0000000000      5.412322291     -0.302429752     -0.000000000
       H    -0.1486100000     1.1695500000     0.0000000000      0.472456987     -5.517619762     -0.000000000
