       3
Lattice="15.0 0.0 0.0 0.0 15.0 0.0 0.0 0.0 15.0" Properties=species:S:1:pos:R:3:forces:R:3 energy=        1.7738539530 pbc="T T T"
       O     0.0000000000     0.0000000000     0.0000000000      7.171873613      1.599863012     -0.000000000
       H     1.2526300000     0.0000000000     0.0000000000     -4.821002583     -1.803663195     -0.000000000
       H     0.3514500000     0.9305900000     0.0000000000     -2.350871030      0.203800182     -0.000000000
