       3
Lattice="15.0 0.0 0.0 0.0 15.0 0.0 0.0 0.0 15.0" Properties=species:S:1:pos:R:3:forces:R:3 energy=        1.2666506978 pbc="T T T"
       O     0.0000000000     0.0000000000     0.0000000000      6.337352783     -2.598355459     -0.000000000
       H     1.2526300000     0.0000000000     0.0000000000     -6.005484658      0.091002182     -0.000000000
       H    -0.1653900000     0.9060800000     0.0000000000     -0.331868125      2.507353276     -0.000000000
