       3
Lattice="15.0 0.0 0.0 0.0 15.0 0.0 0.0 0.0 15.0" Properties=species:S:1:pos:R:3:forces:R:3 energy=        3.1079791873 pbc="T T T"
       O     0.0000000000     0.0000000000     0.0000000000      7.270223704      5.965405151     -0.000000000
       H     1.2894700000     0.0000000000     0.0000000000     -5.538205669     -0.672293246     -0.000000000
       H     0.2616900000     1.3002500000     0.0000000000     -1.732017983     -5.293111905     -0.000000000
