       3
Lattice="15.0 0.0 0.0 0.0 15.0 0.0 0.0 0.0 15.0" Properties=species:S:1:pos:R:3:forces:R:3 energy=        2.3941388057 pbc="T T T"
       O     0.0000000000     0.0000000000     0.0000000000      2.468989725      2.043712247     -0.000000000
       H     1.3263200000     0.0000000000     0.0000000000     -6.104730212      1.153050838     -0.000000000
       H    -0.5868300000     0.9366100000     0.0000000000      3.635740435     -3.196763084     -0.000000000
