       3
Lattice="15.0 0.0 0.0 0.0 15.0 0.0 0.0 0.0 15.0" Properties=species:S:1:pos:R:3:forces:R:3 energy=        2.0358361378 pbc="T T T"
       O     0.0000000000     0.0000000000     0.0000000000      3.734702860     -1.790936537     -0.000000000
       H     1.2526300000     0.0000000000     0.0000000000     -6.466389312      1.584292250     -0.000000000
       H    -0.7344100000     0.6709300000     0.0000000000      2.731686453      0.206644287     -0.000000000
