       3
Lattice="15.0 0.0 0.0 0.0 15.0 0.0 0.0 0.0 15.0" Properties=species:S:1:pos:R:3:forces:R:3 energy=        3.4307310202 pbc="T T T"
       O     0.0000000000     0.0000000000     0.0000000000    -24.418038394      5.716565648     -0.000000000
       H     0.7368400000     0.0000000000     0.0000000000     28.036539112     -4.444224463     -0.000000000
       H     0.3228100000     1.0184900000     0.0000000000     -3.618500718     -1.272341185     -0.000000000
