       3
Lattice="15.0 0.0 0.0 0.0 15.0 0.0 0.0 0.0 15.0" Properties=species:S:1:pos:R:3:forces:R:3 energy=        1.7276811562 pbc="T T T"
       O     0.0000000000     0.0000000000     0.0000000000      3.082633664     -7.772690209     -0.000000000
       H     1.1052600000     0.0000000000     0.0000000000     -3.057244934     -2.912485947     -0.000000000
       H     0.2993800000     0.7927200000     0.0000000000     -0.025388782     10.685176156     -0.000000000
