       3
Lattice="15.0 0.0 0.0 0.0 15.0 0.0 0.0 0.0 15.0" Properties=species:S:1:pos:R:3:forces:R:3 energy=        3.7848755680 pbc="T T T"
       O     0.0000000000     0.0000000000     0.0000000000     -5.449486473    -24.121239566     -0.000000000
       H     1.0315800000     0.0000000000     0.0000000000     -0.632947019     -4.180364414     -0.000000000
       H     0.2972700000     0.6742100000     0.0000000000      6.082433492     28.301604032     -0.000000000
