       3
Lattice="15.0 0.0 0.0 0.0 15.0 0.0 0.0 0.0 15.0" Properties=species:S:1:pos:R:3:forces:R:3 energy=        0.1783422973 pbc="T T T"
       O     0.0000000000     0.0000000000     0.0000000000      1.372931118     -4.778265172     -0.000000000
       H     0.9578900000     0.0000000000     0.0000000000      0.042623460     -0.201741293     -0.000000000
       H    -0.2056400000     0.8599700000     0.0000000000     -1.415554578      4.980006414     -0.000000000
