       3
Lattice="15.0 0.0 0.0 0.0 15.0 0.0 0.0 0.0 15.0" Properties=species:S:1:pos:R:3:forces:R:3 energy=        0.2740679668 pbc="T T T"
       O     0.0000000000     0.0000000000     0.0000000000     -2.294784085      1.338003025     -0.000000000
       H     0.9578900000     0.0000000000     0.0000000000     -0.223788565      1.100998984     -0.000000000
       H    -0.4995800000     0.9025400000     0.0000000000      2.518572650     -2.439002009     -0.000000000
