       3
Lattice="15.0 0.0 0.0 0.0 15.0 0.0 0.0 0.0 15.0" Properties=species:S:1:pos:R:3:forces:R:3 energy=        3.7015504319 pbc="T T T"
       O     0.0000000000     0.0000000000     0.0000000000      0.426080589      1.077906147     -0.000000000
       H     1.3263200000     0.0000000000     0.0000000000     -5.918939690      1.618695272     -0.000000000
       H    -0.9248100000     0.8448700000     0.0000000000      5.492859101     -2.696601419     -0.000000000
