       3
Lattice="15.0 0.0 0.0 0.0 15.0 0.0 0.0 0.0 15.0" Properties=species:S:1:pos:R:3:forces:R:3 energy=        2.3361946681 pbc="T T T"
       O     0.0000000000     0.0000000000     0.0000000000      2.421465432      4.324267635     -0.000000000
       H     1.1789500000     0.0000000000     0.0000000000     -5.522994707      0.912450953     -0.000000000
       H    -0.4988300000     1.1890800000     0.0000000000      3.101529275     -5.236718587     -0.000000000
