       3
Lattice="15.0 0.0 0.0 0.0 15.0 0.0 0.0 0.0 15.0" Properties=species:S:1:pos:R:3:forces:R:3 energy=        2.5452660462 pbc="T T T"
       O     0.0000000000     0.0000000000     0.0000000000      2.687807574      5.670967626     -0.000000000
       H     0.9578900000     0.0000000000     0.0000000000      1.367336498     -3.043806954     -0.000000000
       H     0.6631600000     1.1486300000     0.0000000000     -4.055144072     -2.627160621     -0.000000000
