       3
Lattice="15.0 0.0 0.0 0.0 15.0 0.0 0.0 0.0 15.0" Properties=species:S:1:pos:R:3:forces:R:3 energy=        2.7812061591 pbc="T T T"
       O     0.0000000000     0.0000000000     0.0000000000      1.548496667      0.568112251     -0.000000000
       H     1.3263200000     0.0000000000     0.0000000000     -6.148643801      1.517309119     -0.000000000
       H    -0.7744500000     0.7885600000     0.0000000000      4.600147134     -2.085421370     -0.000000000
