       3
Lattice="15.0 0.0 0.0 0.0 15.0 0.0 0.0 0.0 15.0" Properties=species:S:1:pos:R:3:forces:R:3 energy=        5.3439078791 pbc="T T T"
       O     0.0000000000     0.0000000000     0.0000000000     21.349776895    -34.673602600     -0.000000000
       H     1.3263200000     0.0000000000     0.0000000000     -6.521608355      0.764327573     -0.000000000
       H    -0.3053400000     0.6298900000     0.0000000000    -14.828168539     33.909275028     -0.000000000
