       3
Lattice="15.0 0.0 0.0 0.0 15.0 0.0 0.0 0.0 15.0" Properties=species:S:1:pos:R:3:forces:R:3 energy=        2.2224041023 pbc="T T T"
       O     0.0000000000     0.0000000000     0.0000000000      2.507948333     -7.799957954     -0.000000000
       H     1.1421100000     0.0000000000     0.0000000000     -3.120250360     -3.330655967     -0.000000000
       H     0.3833300000     0.7557100000     0.0000000000      0.612302028     11.130613870     -0.000000000
