       3
Lattice="15.0 0.0 0.0 0.0 15.0 0.0 0.0 0.0 15.0" Properties=species:S:1:pos:R:3:forces:R:3 energy=        2.5545957583 pbc="T T T"
       O     0.0000000000     0.0000000000     0.0000000000    -26.555126518     -3.384061662     -0.000000000
       H     0.7368400000     0.0000000000     0.0000000000     26.422636069      1.599143515     -0.000000000
       H    -0.6088500000     0.6911100000     0.0000000000      0.132490448      1.784918147     -0.000000000
