       3
Lattice="15.0 0.0 0.0 0.0 15.0 0.0 0.0 0.0 15.0" Properties=species:S:1:pos:R:3:forces:R:3 energy=        4.0360828902 pbc="T T T"
       O     0.0000000000     0.0000000000     0.0000000000      0.306943120      0.609685106     -0.000000000
       H     1.2526300000     0.0000000000     0.0000000000     -5.822278044      1.785582983     -0.000000000
       H    -1.0547100000     0.8635900000     0.0000000000      5.515334873     -2.395268089     -0.000000000
