       3
Lattice="15.0 0.0 0.0 0.0 15.0 0.0 0.0 0.0 15.0" Properties=species:S:1:pos:R:3:forces:R:3 energy=        1.9883070520 pbc="T T T"
       O     0.0000000000     0.0000000000     0.0000000000      7.542282491      5.618885999     -0.000000000
       H     1.2157900000     0.0000000000     0.0000000000     -5.130301709     -1.190704816     -0.000000000
       H     0.2948400000     1.1414900000     0.0000000000     -2.411980782     -4.428181183     -0.000000000
