       3
Lattice="15.0 0.0 0.0 0.0 15.0 0.0 0.0 0.0 15.0" Properties=species:S:1:pos:R:3:forces:R:3 energy=        6.0908579404 pbc="T T T"
       O     0.0000000000     0.0000000000     0.0000000000    -19.838538256    -30.755650035     -0.000000000
       H     0.8842100000     0.0000000000     0.0000000000      8.738486179     -7.553965589     -0.000000000
       H     0.3500000000     0.6062200000     0.0000000000     11.100052078     38.309615624     -0.000000000
