       3
Lattice="15.0 0.0 0.0 0.0 15.0 0.0 0.0 0.0 15.0" Properties=species:S:1:pos:R:3:forces:R:3 energy=        2.2427128876 pbc="T T T"
       O     0.0000000000     0.0000000000     0.0000000000      6.646156148      5.212585482     -0.000000000
       H     1.3263200000     0.0000000000     0.0000000000     -5.648876852     -0.488554054     -0.000000000
       H     0.1029600000     1.1374600000     0.0000000000     -0.997279296     -4.724031376     -0.000000000
