       3
Lattice="15.0 0.0 0.0 0.0 15.0 0.0 0.0 0.0 15.0" Properties=species:S:1:pos:R:3:forces:R:3 energy=        3.6007616650 pbc="T T T"
       O     0.0000000000     0.0000000000     0.0000000000    -24.984533986      2.156593242     -0.000000000
       H     0.7368400000     0.0000000000     0.0000000000     28.389034487     -5.825534245     -0.000000000
       H     0.3384300000     0.8961100000     0.0000000000     -3.404500502      3.668941055     -0.000000000
