       3
Lattice="15.0 0.0 0.0 0.0 15.0 0.0 0.0 0.0 15.0" Properties=species:S:1:pos:R:3:forces:R:3 energy=        1.7165062373 pbc="T T T"
       O     0.0000000000     0.0000000000     0.0000000000      8.278697434     -6.373983667     -0.000000000
       H     1.2157900000     0.0000000000     0.0000000000     -6.476165474      1.405144485     -0.000000000
       H    -0.5845000000     0.6634700000     0.0000000000     -1.802531960      4.968839182     -0.000000000
