       3
Lattice="15.0 0.0 0.0 0.0 15.0 0.0 0.0 0.0 15.0" Properties=species:S:1:pos:R:3:forces:R:3 energy=        4.9361380271 pbc="T T T"
       O     0.0000000000     0.0000000000     0.0000000000      4.425279538    -28.936954365     -0.000000000
       H     0.7736800000     0.0000000000     0.0000000000     18.363658324      1.148757402     -0.000000000
       H    -0.4627300000     0.5252400000     0.0000000000    -22.788937862     27.788196911     -0.000000000
