       3
Lattice="15.0 0.0 0.0 0.0 15.0 0.0 0.0 0.0 15.0" Properties=species:S:1:pos:R:3:forces:R:3 energy=        1.6891283720 pbc="T T T"
       O     0.0000000000     0.0000000000     0.0000000000     -2.074468877      1.924138101     -0.000000000
       H     1.0315800000     0.0000000000     0.0000000000     -3.167853844      1.763230007     -0.000000000
       H    -0.8036900000     0.9122700000     0.0000000000      5.242322669     -3.687368108     -0.000000000
