       3
Lattice="15.0 0.0 0.0 0.0 15.0 0.0 0.0 0.0 15.0" Properties=species:S:1:pos:R:3:forces:R:3 energy=        2.3840563124 pbc="T T T"
       O     0.0000000000     0.0000000000     0.0000000000     -9.539432448    -17.673534521     -0.000000000
       H     0.8105300000     0.0000000000     0.0000000000     13.704233608     -1.622161172     -0.000000000
       H    -0.0975200000     0.7675100000     0.0000000000     -4.164801159     19.295695693     -0.000000000
