       3
Lattice="15.0 0.0 0.0 0.0 15.0 0.0 0.0 0.0 15.0" Properties=species:S:1:pos:R:3:forces:R:3 energy=        3.1190680230 pbc="T T T"
       O     0.0000000000     0.0000000000     0.0000000000      2.105191260      3.401226560     -0.000000000
       H     1.3631600000     0.0000000000     0.0000000000     -5.879004937      1.030577206     -0.000000000
       H    -0.5887900000     1.0637100000     0.0000000000      3.773813677     -4.431803767     -0.000000000
