       3
Lattice="15.0 0.0 0.0 0.0 15.0 0.0 0.0 0.0 15.0" Properties=species:S:1:pos:R:3:forces:R:3 energy=        0.9371340925 pbc="T T T"
       O     0.0000000000     0.0000000000     0.0000000000    -11.856263445      0.181650427     -0.000000000
       H     0.8473700000     0.0000000000     0.0000000000      8.289245030      1.724446955     -0.000000000
       H    -0.6819200000     0.7740500000     0.0000000000      3.567018415     -1.906097433     -0.000000000
