       3
Lattice="15.0 0.0 0.0 0.0 15.0 0.0 0.0 0.0 15.0" Properties=species:S:1:pos:R:3:forces:R:3 energy=        1.9262636851 pbc="T T T"
       O     0.0000000000     0.0000000000     0.0000000000      6.254797347      1.570164083     -0.000000000
       H     1.3631600000     0.0000000000     0.0000000000     -5.679176597     -0.388648857     -0.000000000
       H     0.0359100000     0.9940900000     0.0000000000     -0.575620750     -1.181515226     -0.000000000
