       3
Lattice="15.0 0.0 0.0 0.0 15.0 0.0 0.0 0.0 15.0" Properties=species:S:1:pos:R:3:forces:R:3 energy=        3.8800289494 pbc="T T T"
       O     0.0000000000     0.0000000000     0.0000000000     15.962247712    -26.152852041     -0.000000000
       H     1.2894700000     0.0000000000     0.0000000000     -6.466239520      0.636776782     -0.000000000
       H    -0.2850500000     0.6794700000     0.0000000000     -9.496008141     25.516075208     -0.000000000
