       3
Lattice="15.0 0.0 0.0 0.0 15.0 0.0 0.0 0.0 15.0" Properties=species:S:1:pos:R:3:forces:R:3 energy=        3.2205230688 pbc="T T T"
       O     0.0000000000     0.0000000000     0.0000000000      7.717928720      5.515369172     -0.000000000
       H     1.4000000000     0.0000000000     0.0000000000     -5.191802371     -0.873171214     -0.000000000
       H     0.3673400000     1.1589700000     0.0000000000     -2.526126401     -4.642197958     -0.000000000
