       3
Lattice="15.0 0.0 0.0 0.0 15.0 0.0 0.0 0.0 15.0" Properties=species:S:1:pos:R:3:forces:R:3 energy=        1.2950682503 pbc="T T T"
       O     0.0000000000     0.0000000000     0.0000000000     -7.538920823     -0.614936433     -0.000000000
       H     0.8473700000     0.0000000000     0.0000000000     10.033929765     -3.835540494     -0.000000000
       H     0.2303400000     0.8917800000     0.0000000000     -2.495008941      4.450476926     -0.000000000
