       3
Lattice="15.0 0.0 0.0 0.0 15.0 0.0 0.0 0.0 15.0" Properties=species:S:1:pos:R:3:forces:R:3 energy=        0.5052450503 pbc="T T T"
       O     0.0000000000     0.0000000000     0.0000000000      2.436466849      3.266477654     -0.000000000
       H     1.0684200000     0.0000000000     0.0000000000     -3.986588248      0.432213958     -0.000000000
       H    -0.3043700000     1.0241500000     0.0000000000      1.550121399     -3.698691612     -0.000000000
