       3
Lattice="15.0 0.0 0.0 0.0 15.0 0.0 0.0 0.0 15.0" Properties=species:S:1:pos:R:3:forces:R:3 energy=        2.0697146861 pbc="T T T"
       O     0.0000000000     0.0000000000     0.0000000000      1.008900431      2.082174528     -0.000000000
       H     1.1789500000     0.0000000000     0.0000000000     -5.756261443      1.504866054     -0.000000000
       H    -0.7303000000     0.9255200000     0.0000000000      4.747361012     -3.587040582     -0.000000000
