       3
Lattice="15.0 0.0 0.0 0.0 15.0 0.0 0.0 0.0 15.0" Properties=species:S:1:pos:R:3:forces:R:3 energy=        1.1081471173 pbc="T T T"
       O     0.0000000000     0.0000000000     0.0000000000      3.813689038     -0.403418772     -0.000000000
       H     1.1789500000     0.0000000000     0.0000000000     -5.958940469      1.184116515     -0.000000000
       H    -0.5281500000     0.8429500000     0.0000000000      2.145251432     -0.780697743     -0.000000000
