       3
Lattice="15.0 0.0 0.0 0.0 15.0 0.0 0.0 0.0 15.0" Properties=species:S:1:pos:R:3:forces:R:3 energy=        2.3383009382 pbc="T T T"
       O     0.0000000000     0.0000000000     0.0000000000      6.552184546      5.601711587     -0.000000000
       H     1.0684200000     0.0000000000     0.0000000000     -2.735867582     -2.310997470     -0.000000000
       H     0.5833300000     1.1499800000     0.0000000000     -3.816316963     -3.290714118     -0.000000000
