       3
Lattice="15.0 0.0 0.0 0.0 15.0 0.0 0.0 0.0 15.0" Properties=species:S:1:pos:R:3:forces:R:3 energy=        2.1431646443 pbc="T T T"
       O     0.0000000000     0.0000000000     0.0000000000     -3.437530811      5.672019979     -0.000000000
       H     0.9210500000     0.0000000000     0.0000000000      2.641398369      0.095443611     -0.000000000
       H    -0.1764700000     1.3888300000     0.0000000000      0.796132442     -5.767463590     -0.000000000
