       3
Lattice="15.0 0.0 0.0 0.0 15.0 0.0 0.0 0.0 15.0" Properties=species:S:1:pos:R:3:forces:R:3 energy=        2.3478160633 pbc="T T T"
       O     0.0000000000     0.0000000000     0.0000000000      1.488611789     -7.658438250     -0.000000000
       H     1.1052600000     0.0000000000     0.0000000000     -2.162636263     -4.035062513     -0.000000000
       H     0.4236900000     0.7338400000     0.0000000000      0.674024474     11.693500763     -0.000000000
