       3
Lattice="15.0 0.0 0.0 0.0 15.0 0.0 0.0 0.0 15.0" Properties=species:S:1:pos:R:3:forces:R:3 energy=        3.8191618572 pbc="T T T"
       O     0.0000000000     0.0000000000     0.0000000000    -34.934866554     -3.122722066     -0.000000000
       H     0.7000000000     0.0000000000     0.0000000000     37.121684670     -2.264136058     -0.000000000
       H    -0.0638000000     0.8819100000     0.0000000000     -2.186818116      5.386858073     -0.000000000
