       3
Lattice="15.0 0.0 0.0 0.0 15.0 0.0 0.0 0.0 15.0" Properties=species:S:1:pos:R:3:forces:R:3 energy=        1.4730590336 pbc="T T T"
       O     0.0000000000     0.0000000000     0.0000000000      8.251077346    -18.485838850     -0.000000000
       H     0.9947400000     0.0000000000     0.0000000000     -1.966642159      0.184650134     -0.000000000
       H    -0.2602300000     0.7286000000     0.0000000000     -6.284435187     18.301188716     -0.000000000
