       3
Lattice="15.0 0.0 0.0 0.0 15.0 0.0 0.0 0.0 15.0" Properties=species:S:1:pos:R:3:forces:R:3 energy=        1.9749171562 pbc="T T T"
       O     0.0000000000     0.0000000000     0.0000000000      4.026708840      2.662456845     -0.000000000
       H     1.3263200000     0.0000000000     0.0000000000     -6.078429563      0.657044129     -0.000000000
       H    -0.3593700000     1.0061700000     0.0000000000      2.051720722     -3.319500974     -0.000000000
