       3
Lattice="15.0 0.0 0.0 0.0 15.0 0.0 0.0 0.0 15.0" Properties=species:S:1:pos:R:3:forces:R:3 energy=        0.3106782390 pbc="T T T"
       O     0.0000000000     0.0000000000     0.0000000000     -2.606631381      4.297890058     -0.000000000
       H     0.9210500000     0.0000000000     0.0000000000      2.520327480     -0.461602864     -0.000000000
       H    -0.1346700000     1.0599000000     0.0000000000      0.086303901     -3.836287194     -0.000000000
