       3
Lattice="15.0 0.0 0.0 0.0 15.0 0.0 0.0 0.0 15.0" Properties=species:S:1:pos:R:3:forces:R:3 energy=        3.6737130561 pbc="T T T"
       O     0.0000000000     0.0000000000     0.0000000000     14.106800573    -12.652991150     -0.000000000
       H     1.4000000000     0.0000000000     0.0000000000     -6.308300846      1.359955269     -0.000000000
       H    -0.5679300000     0.5782800000     0.0000000000     -7.798499726     11.293035830     -0.000000000
