       3
Lattice="15.0 0.0 0.0 0.0 15.0 0.0 0.0 0.0 15.0" Properties=species:S:1:pos:R:3:forces:R:3 energy=        0.7121676214 pbc="T T T"
       O     0.0000000000     0.0000000000     0.0000000000     -1.097341125      3.868775823     -0.000000000
       H     0.9947400000     0.0000000000     0.0000000000     -1.708248792      0.867013316     -0.000000000
       H    -0.4418200000     1.0531900000     0.0000000000      2.805589865     -4.735789139     -0.000000000
