       3
Lattice="15.0 0.0 0.0 0.0 15.0 0.0 0.0 0.0 15.0" Properties=species:S:1:pos:R:3:forces:R:3 energy=        3.6557515359 pbc="T T T"
       O     0.0000000000     0.0000000000     0.0000000000      8.695816747    -35.782734296     -0.000000000
       H     1.0315800000     0.0000000000     0.0000000000     -2.840466433     -0.811710661     -0.000000000
       H    -0.0882300000     0.6944200000     0.0000000000     -5.855350365     36.594444957     -0.000000000
