       3
Lattice="15.0 0.0 0.0 0.0 15.0 0.0 0.0 0.0 15.0" Properties=species:S:1:pos:R:3:forces:R:3 energy=        3.4747427241 pbc="T T T"
       O     0.0000000000     0.0000000000     0.0000000000     21.542340323    -23.545517206     -0.000000000
       H     1.1789500000     0.0000000000     0.0000000000     -6.438169745      1.228994422     -0.000000000
       H    -0.4564300000     0.5784500000     0.0000000000    -15.104170629     22.316522784     -0.000000000
