       3
Lattice="15.0 0.0 0.0 0.0 15.0 0.0 0.0 0.0 15.0" Properties=species:S:1:pos:R:3:forces:R:3 energy=        1.0507665547 pbc="T T T"
       O     0.0000000000     0.0000000000     0.0000000000      0.492204560      3.053855344     -0.000000000
       H     1.0684200000     0.0000000000     0.0000000000     -4.111576419      1.188720283     -0.000000000
       H    -0.5531000000     0.9992400000     0.0000000000      3.619371859     -4.242575627     -0.000000000
