       3
Lattice="15.0 0.0 0.0 0.0 15.0 0.0 0.0 0.0 15.0" Properties=species:S:1:pos:R:3:forces:R:3 energy=        3.4030130018 pbc="T T T"
       O     0.0000000000     0.0000000000     0.0000000000      0.024447757      1.323710102     -0.000000000
       H     1.1421100000     0.0000000000     0.0000000000     -5.106489580      1.779338336     -0.000000000
       H    -0.9809700000     0.9988500000     0.0000000000      5.082041822     -3.103048387     -0.000000000
