       3
Lattice="15.0 0.0 0.0 0.0 15.0 0.0 0.0 0.0 15.0" Properties=species:S:1:pos:R:3:forces:R:3 energy=        3.8465063858 pbc="T T T"
       O     0.0000000000     0.0000000000     0.0000000000     -8.136678473    -23.747079654     -0.000000000
       H     0.9578900000     0.0000000000     0.0000000000      2.556769234     -4.991165521     -0.000000000
       H     0.2972700000     0.6742100000     0.0000000000      5.579909239     28.738245175     -0.000000000
