       3
Lattice="15.0 0.0 0.0 0.0 15.0 0.0 0.0 0.0 15.0" Properties=species:S:1:pos:R:3:forces:R:3 energy=        4.7112461941 pbc="T T T"
       O     0.0000000000     0.0000000000     0.0000000000    -21.657047419    -24.583491994     -0.000000000
       H     0.7368400000     0.0000000000     0.0000000000     27.260794344     -2.184833635     -0.000000000
       H    -0.0928800000     0.7309600000     0.0000000000     -5.603746976     26.768325578     -0.000000000
