       3
Lattice="15.0 0.0 0.0 0.0 15.0 0.0 0.0 0.0 15.0" Properties=species:S:1:pos:R:3:forces:R:3 energy=        3.0736284397 pbc="T T T"
       O     0.0000000000     0.0000000000     0.0000000000      1.749466217     -0.646831600     -0.000000000
       H     1.3631600000     0.0000000000     0.0000000000     -6.114016013      1.593255428     -0.000000000
       H    -0.8266600000     0.6768700000     0.0000000000      4.364549795     -0.946423829     -0.000000000
