       3
Lattice="15.0 0.0 0.0 0.0 15.0 0.0 0.0 0.0 15.0" Properties=species:S:1:pos:R:3:forces:R:3 energy=        0.3995078684 pbc="T T T"
       O     0.0000000000     0.0000000000     0.0000000000     -0.821309416      2.451271576     -0.000000000
       H     0.9947400000     0.0000000000     0.0000000000     -1.841402173      0.970394389     -0.000000000
       H    -0.4660500000     0.9614100000     0.0000000000      2.662711538     -3.421665966     -0.000000000
