       3
Lattice="15.0 0.0 0.0 0.0 15.0 0.0 0.0 0.0 15.0" Properties=species:S:1:pos:R:3:forces:R:3 energy=        5.7121419900 pbc="T T T"
       O     0.0000000000     0.0000000000     0.0000000000    -36.233505972    -16.038127533     -0.000000000
       H     0.7000000000     0.0000000000     0.0000000000     37.766593187     -5.028146384     -0.000000000
       H     0.1113600000     0.7656200000     0.0000000000     -1.533087164     21.066273917     -0.000000000
