       3
Lattice="15.0 0.0 0.0 0.0 15.0 0.0 0.0 0.0 15.0" Properties=species:S:1:pos:R:3:forces:R:3 energy=        0.5702597945 pbc="T T T"
       O     0.0000000000     0.0000000000     0.0000000000     -5.114009186      3.174652049     -0.000000000
       H     0.9210500000     0.0000000000     0.0000000000      2.147207065      1.012065204     -0.000000000
       H    -0.4821200000     0.9945600000     0.0000000000      2.966802172     -4.186717202     -0.000000000
