       3
Lattice="15.0 0.0 0.0 0.0 15.0 0.0 0.0 0.0 15.0" Properties=species:S:1:pos:R:3:forces:R:3 energy=        0.8278664918 pbc="T T T"
       O     0.0000000000     0.0000000000     0.0000000000      4.011001706      3.404842870     -0.000000000
       H     1.1421100000     0.0000000000     0.0000000000     -5.217149912      0.292895377     -0.000000000
       H    -0.2484800000     1.0391200000     0.0000000000      1.206148205     -3.697738247     -0.000000000
