       3
Lattice="15.0 0.0 0.0 0.0 15.0 0.0 0.0 0.0 15.0" Properties=species:S:1:pos:R:3:forces:R:3 energy=        2.7140469999 pbc="T T T"
       O     0.0000000000     0.0000000000     0.0000000000    -24.467884651      1.913013190     -0.000000000
       H     0.7736800000     0.0000000000     0.0000000000     19.195887941      2.043029464     -0.000000000
       H    -0.7793300000     0.8846200000     0.0000000000      5.271996710     -3.956042654     -0.000000000
