       3
Lattice="15.0 0.0 0.0 0.0 15.0 0.0 0.0 0.0 15.0" Properties=species:S:1:pos:R:3:forces:R:3 energy=        0.4493923390 pbc="T T T"
       O     0.0000000000     0.0000000000     0.0000000000      4.375464802     -3.338166523     -0.000000000
       H     1.0684200000     0.0000000000     0.0000000000     -4.391222175      0.991559463     -0.000000000
       H    -0.4460500000     0.8058400000     0.0000000000      0.015757373      2.346607008     -0.000000000
