       3
Lattice="15.0 0.0 0.0 0.0 15.0 0.0 0.0 0.0 15.0" Properties=species:S:1:pos:R:3:forces:R:3 energy=        4.8903246192 pbc="T T T"
       O     0.0000000000     0.0000000000     0.0000000000    -32.688834670      1.283335433     -0.000000000
       H     0.7368400000     0.0000000000     0.0000000000     27.085992002      2.496046125     -0.000000000
       H    -0.9551600000     0.9725600000     0.0000000000      5.602842719     -3.779381558     -0.000000000
