       3
Lattice="15.0 0.0 0.0 0.0 15.0 0.0 0.0 0.0 15.0" Properties=species:S:1:pos:R:3:forces:R:3 energy=        2.9688524592 pbc="T T T"
       O     0.0000000000     0.0000000000     0.0000000000      3.914527185     -4.967035707     -0.000000000
       H     1.3631600000     0.0000000000     0.0000000000     -4.196119627     -2.150096832     -0.000000000
       H     0.4421100000     0.7657500000     0.0000000000      0.281592493      7.117132539     -0.000000000
