       3
Lattice="15.0 0.0 0.0 0.0 15.0 0.0 0.0 0.0 15.0" Properties=species:S:1:pos:R:3:forces:R:3 energy=        1.8031234912 pbc="T T T"
       O     0.0000000000     0.0000000000     0.0000000000      6.340557767     -2.210220308     -0.000000000
       H     1.3263200000     0.0000000000     0.0000000000     -5.620571821     -0.678833262     -0.000000000
       H     0.0830400000     0.9173000000     0.0000000000     -0.719985947      2.889053570     -0.000000000
