       3
Lattice="15.0 0.0 0.0 0.0 15.0 0.0 0.0 0.0 15.0" Properties=species:S:1:pos:R:3:forces:R:3 energy=        0.8151675856 pbc="T T T"
       O     0.0000000000     0.0000000000     0.0000000000      4.707772740      3.828935738     -0.000000000
       H     1.1421100000     0.0000000000     0.0000000000     -5.084871683     -0.090818811     -0.000000000
       H    -0.1346700000     1.0599000000     0.0000000000      0.377098891     -3.738116927     -0.000000000
