       3
Lattice="15.0 0.0 0.0 0.0 15.0 0.0 0.0 0.0 15.0" Properties=species:S:1:pos:R:3:forces:R:3 energy=        4.3096405129 pbc="T T T"
       O     0.0000000000     0.0000000000     0.0000000000    -29.920144883      4.777372176     -0.000000000
       H     0.7368400000     0.0000000000     0.0000000000     27.310575347      0.970016951     -0.000000000
       H    -0.4585100000     1.2837300000     0.0000000000      2.609569536     -5.747389127     -0.000000000
