       3
Lattice="15.0 0.0 0.0 0.0 15.0 0.0 0.0 0.0 15.0" Properties=species:S:1:pos:R:3:forces:R:3 energy=        1.8426690774 pbc="T T T"
       O     0.0000000000     0.0000000000     0.0000000000      5.473526505    -18.694177700     -0.000000000
       H     1.0684200000     0.0000000000     0.0000000000     -3.565338918     -1.122442817     -0.000000000
       H    -0.0139700000     0.7735500000     0.0000000000     -1.908187587     19.816620466     -0.000000000
