       3
Lattice="15.0 0.0 0.0 0.0 15.0 0.0 0.0 0.0 15.0" Properties=species:S:1:pos:R:3:forces:R:3 energy=        0.7018206797 pbc="T T T"
       O     0.0000000000     0.0000000000     0.0000000000     -8.253888488     -3.427492602     -0.000000000
       H     0.8473700000     0.0000000000     0.0000000000      8.171964515      1.420934768     -0.000000000
       H    -0.5705400000     0.7230600000     0.0000000000      0.081923973      2.006557834     -0.000000000
