       3
Lattice="15.0 0.0 0.0 0.0 15.0 0.0 0.0 0.0 15.0" Properties=species:S:1:pos:R:3:forces:R:3 energy=        3.7798841590 pbc="T T T"
       O     0.0000000000     0.0000000000     0.0000000000    -23.070567996      3.800925973     -0.000000000
       H     0.7736800000     0.0000000000     0.0000000000     19.655547667      1.430990975     -0.000000000
       H    -0.6106900000     1.2597900000     0.0000000000      3.415020329     -5.231916947     -0.000000000
