       3
Lattice="15.0 0.0 0.0 0.0 15.0 0.0 0.0 0.0 15.0" Properties=species:S:1:pos:R:3:forces:R:3 energy=        2.2608862975 pbc="T T T"
       O     0.0000000000     0.0000000000     0.0000000000      4.877595881     -8.347752876     -0.000000000
       H     1.2894700000     0.0000000000     0.0000000000     -5.138788770     -1.442868294     -0.000000000
       H     0.2119200000     0.8204400000     0.0000000000      0.261192888      9.790621170     -0.000000000
