       3
Lattice="15.0 0.0 0.0 0.0 15.0 0.0 0.0 0.0 15.0" Properties=species:S:1:pos:R:3:forces:R:3 energy=        4.7734494333 pbc="T T T"
       O     0.0000000000     0.0000000000     0.0000000000    -37.175979350      6.710412932     -0.000000000
       H     0.7000000000     0.0000000000     0.0000000000     37.184429799     -0.780768808     -0.000000000
       H    -0.0903900000     1.2493600000     0.0000000000     -0.008450449     -5.929644123     -0.000000000
