       3
Lattice="15.0 0.0 0.0 0.0 15.0 0.0 0.0 0.0 15.0" Properties=species:S:1:pos:R:3:forces:R:3 energy=        2.5499388970 pbc="T T T"
       O     0.0000000000     0.0000000000     0.0000000000      1.996579172      2.825897733     -0.000000000
       H     1.2894700000     0.0000000000     0.0000000000     -6.062259476      1.197098895     -0.000000000
       H    -0.6259500000     0.9990500000     0.0000000000      4.065680252     -4.022996628     -0.000000000
