       3
Lattice="15.0 0.0 0.0 0.0 15.0 0.0 0.0 0.0 15.0" Properties=species:S:1:pos:R:3:forces:R:3 energy=        2.0839535065 pbc="T T T"
       O     0.0000000000     0.0000000000     0.0000000000      5.262180131      3.515664976     -0.000000000
       H     1.3631600000     0.0000000000     0.0000000000     -5.861248633      0.107821370     -0.000000000
       H    -0.1346700000     1.0599000000     0.0000000000      0.599068451     -3.623486346     -0.000000000
