       3
Lattice="15.0 0.0 0.0 0.0 15.0 0.0 0.0 0.0 15.0" Properties=species:S:1:pos:R:3:forces:R:3 energy=        3.7472767742 pbc="T T T"
       O     0.0000000000     0.0000000000     0.0000000000    -37.270096734      4.696646338     -0.000000000
       H     0.7000000000     0.0000000000     0.0000000000     36.986293811     -0.675899271     -0.000000000
       H    -0.1918600000     1.0510500000     0.0000000000      0.283802923     -4.020747066     -0.000000000
