       3
Lattice="15.0 0.0 0.0 0.0 15.0 0.0 0.0 0.0 15.0" Properties=species:S:1:pos:R:3:forces:R:3 energy=        2.2828100540 pbc="T T T"
       O     0.0000000000     0.0000000000     0.0000000000     -6.101332549      4.499344622     -0.000000000
       H     0.8473700000     0.0000000000     0.0000000000     10.578064359     -5.551908113     -0.000000000
       H     0.5342100000     0.9252800000     0.0000000000     -4.476731862      1.052563491     -0.000000000
