       3
Lattice="15.0 0.0 0.0 0.0 15.0 0.0 0.0 0.0 15.0" Properties=species:S:1:pos:R:3:forces:R:3 energy=        1.2164553235 pbc="T T T"
       O     0.0000000000     0.0000000000     0.0000000000      5.888475292     -0.437441631     -0.000000000
       H     1.2526300000     0.0000000000     0.0000000000     -5.986142291      0.117417657     -0.000000000
       H    -0.1720100000     0.9423200000     0.0000000000      0.097666948      0.320024025     -0.000000000
