       3
Lattice="15.0 0.0 0.0 0.0 15.0 0.0 0.0 0.0 15.0" Properties=species:S:1:pos:R:3:forces:R:3 energy=        4.7460893561 pbc="T T T"
       O     0.0000000000     0.0000000000     0.0000000000    -11.946186329    -34.364446685     -0.000000000
       H     0.8105300000     0.0000000000     0.0000000000     14.243181102     -3.152114366     -0.000000000
       H     0.0252700000     0.6995400000     0.0000000000     -2.296994824     37.516561000     -0.000000000
