       3
Lattice="15.0 0.0 0.0 0.0 15.0 0.0 0.0 0.0 15.0" Properties=species:S:1:pos:R:3:forces:R:3 energy=        3.3964651695 pbc="T T T"
       O     0.0000000000     0.0000000000     0.0000000000      0.635437288    -18.096187776     -0.000000000
       H     1.2526300000     0.0000000000     0.0000000000     -4.549101456     -2.158689155     -0.000000000
       H     0.2733500000     0.7237800000     0.0000000000      3.913664117     20.254876931     -0.000000000
