       3
Lattice="15.0 0.0 0.0 0.0 15.0 0.0 0.0 0.0 15.0" Properties=species:S:1:pos:R:3:forces:R:3 energy=        1.1080330717 pbc="T T T"
       O     0.0000000000     0.0000000000     0.0000000000      0.121118916      0.291236037     -0.000000000
       H     1.0684200000     0.0000000000     0.0000000000     -4.449260588      1.695719954     -0.000000000
       H    -0.7486400000     0.7622800000     0.0000000000      4.328141672     -1.986955992     -0.000000000
