       3
Lattice="15.0 0.0 0.0 0.0 15.0 0.0 0.0 0.0 15.0" Properties=species:S:1:pos:R:3:forces:R:3 energy=        3.1404055020 pbc="T T T"
       O     0.0000000000     0.0000000000     0.0000000000     19.387642705    -16.072155071     -0.000000000
       H     1.2157900000     0.0000000000     0.0000000000     -6.779734533      1.455649048     -0.000000000
       H    -0.5712000000     0.5218300000     0.0000000000    -12.607908171     14.616506074     -0.000000000
