       3
Lattice="15.0 0.0 0.0 0.0 15.0 0.0 0.0 0.0 15.0" Properties=species:S:1:pos:R:3:forces:R:3 energy=        1.9058966811 pbc="T T T"
       O     0.0000000000     0.0000000000     0.0000000000     -4.034174556      0.797192714     -0.000000000
       H     0.9947400000     0.0000000000     0.0000000000     -1.990555332      2.010156146     -0.000000000
       H    -0.9406900000     0.7702300000     0.0000000000      6.024729888     -2.807348861     -0.000000000
