       3
Lattice="15.0 0.0 0.0 0.0 15.0 0.0 0.0 0.0 15.0" Properties=species:S:1:pos:R:3:forces:R:3 energy=        1.9570622611 pbc="T T T"
       O     0.0000000000     0.0000000000     0.0000000000    -10.366828954      2.035752570     -0.000000000
       H     0.8842100000     0.0000000000     0.0000000000      4.981826036      1.971519081     -0.000000000
       H    -0.8280400000     0.9399100000     0.0000000000      5.385002918     -4.007271651     -0.000000000
