       3
Lattice="15.0 0.0 0.0 0.0 15.0 0.0 0.0 0.0 15.0" Properties=species:S:1:pos:R:3:forces:R:3 energy=        2.5508930805 pbc="T T T"
       O     0.0000000000     0.0000000000     0.0000000000    -28.091882390     -1.810627545     -0.000000000
       H     0.7368400000     0.0000000000     0.0000000000     26.486965667      1.678800082     -0.000000000
       H    -0.6332000000     0.7187500000     0.0000000000      1.604916775      0.131827463     -0.000000000
