       3
Lattice="15.0 0.0 0.0 0.0 15.0 0.0 0.0 0.0 15.0" Properties=species:S:1:pos:R:3:forces:R:3 energy=        1.9026909648 pbc="T T T"
       O     0.0000000000     0.0000000000     0.0000000000      1.691880370    -12.118882731     -0.000000000
       H     1.0684200000     0.0000000000     0.0000000000     -2.431881747     -2.909464282     -0.000000000
       H     0.2448900000     0.7726500000     0.0000000000      0.740001377     15.028347013     -0.000000000
