       3
Lattice="15.0 0.0 0.0 0.0 15.0 0.0 0.0 0.0 15.0" Properties=species:S:1:pos:R:3:forces:R:3 energy=        2.2405799912 pbc="T T T"
       O     0.0000000000     0.0000000000     0.0000000000     -2.814379906      0.803979453     -0.000000000
       H     1.0315800000     0.0000000000     0.0000000000     -3.216595144      2.002625022     -0.000000000
       H    -0.9691900000     0.7935700000     0.0000000000      6.030975049     -2.806604475     -0.000000000
