       3
Lattice="15.0 0.0 0.0 0.0 15.0 0.0 0.0 0.0 15.0" Properties=species:S:1:pos:R:3:forces:R:3 energy=        4.5163075582 pbc="T T T"
       O     0.0000000000     0.0000000000     0.0000000000    -38.028040100      6.117667855     -0.000000000
       H     0.7000000000     0.0000000000     0.0000000000     37.071429916     -0.208505458     -0.000000000
       H    -0.2183200000     1.1960300000     0.0000000000      0.956610185     -5.909162397     -0.000000000
