       3
Lattice="15.0 0.0 0.0 0.0 15.0 0.0 0.0 0.0 15.0" Properties=species:S:1:pos:R:3:forces:R:3 energy=        0.1470122394 pbc="T T T"
       O     0.0000000000     0.0000000000     0.0000000000     -1.474664525      2.287504518     -0.000000000
       H     0.9578900000     0.0000000000     0.0000000000     -0.029446036      0.511529854     -0.000000000
       H    -0.3469800000     0.9714700000     0.0000000000      1.504110560     -2.799034372     -0.000000000
