       3
Lattice="15.0 0.0 0.0 0.0 15.0 0.0 0.0 0.0 15.0" Properties=species:S:1:pos:R:3:forces:R:3 energy=        0.2607179057 pbc="T T T"
       O     0.0000000000     0.0000000000     0.0000000000     -0.426941497      4.207310205     -0.000000000
       H     0.9578900000     0.0000000000     0.0000000000      0.290108402     -0.385854375     -0.000000000
       H    -0.1346700000     1.0599000000     0.0000000000      0.136833146     -3.821455881     -0.000000000
