       3
Lattice="15.0 0.0 0.0 0.0 15.0 0.0 0.0 0.0 15.0" Properties=species:S:1:pos:R:3:forces:R:3 energy=        4.2943626421 pbc="T T T"
       O     0.0000000000     0.0000000000     0.0000000000     14.419021861    -35.996207899     -0.000000000
       H     1.1789500000     0.0000000000     0.0000000000     -5.833239485      0.011102029     -0.000000000
       H    -0.1628000000     0.6808100000     0.0000000000     -8.585782376     35.985105870     -0.000000000
