       3
Lattice="15.0 0.0 0.0 0.0 15.0 0.0 0.0 0.0 15.0" Properties=species:S:1:pos:R:3:forces:R:3 energy=        5.6287791171 pbc="T T T"
       O     0.0000000000     0.0000000000     0.0000000000    -41.972893102      2.268333489     -0.000000000
       H     0.7000000000     0.0000000000     0.0000000000     36.869608147      2.267333021     -0.000000000
       H    -0.8215900000     1.0412100000     0.0000000000      5.103284955     -4.535666459     -0.000000000
