       3
Lattice="15.0 0.0 0.0 0.0 15.0 0.0 0.0 0.0 15.0" Properties=species:S:1:pos:R:3:forces:R:3 energy=        2.5429047863 pbc="T T T"
       O     0.0000000000     0.0000000000     0.0000000000      9.999314781    -23.311129161     -0.000000000
       H     0.8842100000     0.0000000000     0.0000000000      4.294924906      0.981802174     -0.000000000
       H    -0.4244500000     0.6023100000     0.0000000000    -14.294239687     22.329326936     -0.000000000
