       3
Lattice="15.0 0.0 0.0 0.0 15.0 0.0 0.0 0.0 15.0" Properties=species:S:1:pos:R:3:forces:R:3 energy=        7.4480142550 pbc="T T T"
       O     0.0000000000     0.0000000000     0.0000000000    -34.603228028    -33.381609385     -0.000000000
       H     0.7000000000     0.0000000000     0.0000000000     37.467948666     -4.220265794     -0.000000000
       H     0.0252700000     0.6995400000     0.0000000000     -2.864720638     37.601875179     -0.000000000
