       3
Lattice="15.0 0.0 0.0 0.0 15.0 0.0 0.0 0.0 15.0" Properties=species:S:1:pos:R:3:forces:R:3 energy=        1.0265288426 pbc="T T T"
       O     0.0000000000     0.0000000000     0.0000000000    -15.393964843      1.934528757     -0.000000000
       H     0.8105300000     0.0000000000     0.0000000000     13.273043823      0.871287726     -0.000000000
       H    -0.4499800000     0.9282600000     0.0000000000      2.120921020     -2.805816482     -0.000000000
