       3
Lattice="15.0 0.0 0.0 0.0 15.0 0.0 0.0 0.0 15.0" Properties=species:S:1:pos:R:3:forces:R:3 energy=        5.4874672848 pbc="T T T"
       O     0.0000000000     0.0000000000     0.0000000000    -33.618965873      7.273705956     -0.000000000
       H     0.7000000000     0.0000000000     0.0000000000     37.718065597     -4.736788065     -0.000000000
       H     0.4904900000     1.1124600000     0.0000000000     -4.099099724     -2.536917891     -0.000000000
