       3
Lattice="15.0 0.0 0.0 0.0 15.0 0.0 0.0 0.0 15.0" Properties=species:S:1:pos:R:3:forces:R:3 energy=        1.2231128558 pbc="T T T"
       O     0.0000000000     0.0000000000     0.0000000000      3.452707937      5.867980556     -0.000000000
       H     1.0684200000     0.0000000000     0.0000000000     -3.672136218     -0.215123326     -0.000000000
       H    -0.0877300000     1.2126200000     0.0000000000      0.219428280     -5.652857230     -0.000000000
