       3
Lattice="15.0 0.0 0.0 0.0 15.0 0.0 0.0 0.0 15.0" Properties=species:S:1:pos:R:3:forces:R:3 energy=        1.7337742998 pbc="T T T"
       O     0.0000000000     0.0000000000     0.0000000000     12.197837850    -12.952886924     -0.000000000
       H     1.1421100000     0.0000000000     0.0000000000     -5.921693292      1.174289343     -0.000000000
       H    -0.4669000000     0.6625500000     0.0000000000     -6.276144558     11.778597530     -0.000000000
