       3
Lattice="15.0 0.0 0.0 0.0 15.0 0.0 0.0 0.0 15.0" Properties=species:S:1:pos:R:3:forces:R:3 energy=        0.8485326605 pbc="T T T"
       O     0.0000000000     0.0000000000     0.0000000000      5.008197391    -12.813334680     -0.000000000
       H     0.9578900000     0.0000000000     0.0000000000     -0.309930434      0.398007317     -0.000000000
       H    -0.3135500000     0.7474200000     0.0000000000     -4.698266956     12.415327363     -0.000000000
