       3
Lattice="15.0 0.0 0.0 0.0 15.0 0.0 0.0 0.0 15.0" Properties=species:S:1:pos:R:3:forces:R:3 energy=        0.7208642607 pbc="T T T"
       O     0.0000000000     0.0000000000     0.0000000000      4.475242729      5.069727826     -0.000000000
       H     1.0684200000     0.0000000000     0.0000000000     -3.521529459     -0.827531078     -0.000000000
       H     0.0399000000     1.1045400000     0.0000000000     -0.953713218     -4.242196749     -0.000000000
