       3
Lattice="15.0 0.0 0.0 0.0 15.0 0.0 0.0 0.0 15.0" Properties=species:S:1:pos:R:3:forces:R:3 energy=        3.1261744179 pbc="T T T"
       O     0.0000000000     0.0000000000     0.0000000000    -16.747040196      4.338059039     -0.000000000
       H     0.7736800000     0.0000000000     0.0000000000     20.969316748     -6.058467765     -0.000000000
       H     0.4666700000     0.9199900000     0.0000000000     -4.222276552      1.720408727     -0.000000000
