       3
Lattice="15.0 0.0 0.0 0.0 15.0 0.0 0.0 0.0 15.0" Properties=species:S:1:pos:R:3:forces:R:3 energy=        1.0813707543 pbc="T T T"
       O     0.0000000000     0.0000000000     0.0000000000      4.824399578      5.645582907     -0.000000000
       H     1.0315800000     0.0000000000     0.0000000000     -2.089765200     -1.892171715     -0.000000000
       H     0.2856300000     1.1058200000     0.0000000000     -2.734634327     -3.753411244     -0.000000000
