       3
Lattice="15.0 0.0 0.0 0.0 15.0 0.0 0.0 0.0 15.0" Properties=species:S:1:pos:R:3:forces:R:3 energy=        1.1095024838 pbc="T T T"
       O     0.0000000000     0.0000000000     0.0000000000      6.158420014     -3.035941945     -0.000000000
       H     1.2157900000     0.0000000000     0.0000000000     -6.066607676      0.564305371     -0.000000000
       H    -0.3098000000     0.8673800000     0.0000000000     -0.091812337      2.471636574     -0.000000000
