       3
Lattice="15.0 0.0 0.0 0.0 15.0 0.0 0.0 0.0 15.0" Properties=species:S:1:pos:R:3:forces:R:3 energy=        3.2247052221 pbc="T T T"
       O     0.0000000000     0.0000000000     0.0000000000    -13.934045190     -2.919871444     -0.000000000
       H     0.8105300000     0.0000000000     0.0000000000     15.932746809     -7.658135065     -0.000000000
       H     0.4421100000     0.7657500000     0.0000000000     -1.998701619     10.578006509     -0.000000000
