       3
Lattice="15.0 0.0 0.0 0.0 15.0 0.0 0.0 0.0 15.0" Properties=species:S:1:pos:R:3:forces:R:3 energy=        3.1637850106 pbc="T T T"
       O     0.0000000000     0.0000000000     0.0000000000     10.472771413     -9.379923601     -0.000000000
       H     1.4000000000     0.0000000000     0.0000000000     -6.223160370      1.302031218     -0.000000000
       H    -0.5601500000     0.6358200000     0.0000000000     -4.249611043      8.077892383     -0.000000000
