       3
Lattice="15.0 0.0 0.0 0.0 15.0 0.0 0.0 0.0 15.0" Properties=species:S:1:pos:R:3:forces:R:3 energy=        3.0670566070 pbc="T T T"
       O     0.0000000000     0.0000000000     0.0000000000    -12.905839879      6.470089543     -0.000000000
       H     0.8105300000     0.0000000000     0.0000000000     14.004711994     -1.045661979     -0.000000000
       H     0.1262100000     1.3943000000     0.0000000000     -1.098872115     -5.424427564     -0.000000000
