       3
Lattice="15.0 0.0 0.0 0.0 15.0 0.0 0.0 0.0 15.0" Properties=species:S:1:pos:R:3:forces:R:3 energy=        3.9563215966 pbc="T T T"
       O     0.0000000000     0.0000000000     0.0000000000     13.580712303    -30.205834740     -0.000000000
       H     0.8473700000     0.0000000000     0.0000000000      7.796157245      1.054131094     -0.000000000
       H    -0.4336100000     0.5495300000     0.0000000000    -21.376869547     29.151703595     -0.000000000
