       3
Lattice="15.0 0.0 0.0 0.0 15.0 0.0 0.0 0.0 15.0" Properties=species:S:1:pos:R:3:forces:R:3 energy=        0.7130966481 pbc="T T T"
       O     0.0000000000     0.0000000000     0.0000000000     -0.633337930      2.702081625     -0.000000000
       H     0.9210500000     0.0000000000     0.0000000000      3.398102565     -2.961014616     -0.000000000
       H     0.2487700000     0.9631300000     0.0000000000     -2.764764636      0.258933042     -0.000000000
