       3
Lattice="15.0 0.0 0.0 0.0 15.0 0.0 0.0 0.0 15.0" Properties=species:S:1:pos:R:3:forces:R:3 energy=        4.7351413121 pbc="T T T"
       O     0.0000000000     0.0000000000     0.0000000000     24.626619390    -33.077591514     -0.000000000
       H     1.2157900000     0.0000000000     0.0000000000     -6.562133126      0.994012451     -0.000000000
       H    -0.3716600000     0.5931900000     0.0000000000    -18.064486265     32.083579062     -0.000000000
