       3
Lattice="15.0 0.0 0.0 0.0 15.0 0.0 0.0 0.0 15.0" Properties=species:S:1:pos:R:3:forces:R:3 energy=        2.9571570245 pbc="T T T"
       O     0.0000000000     0.0000000000     0.0000000000    -17.231358870      7.041276424     -0.000000000
       H     0.7736800000     0.0000000000     0.0000000000     20.197829884     -2.876880265     -0.000000000
       H     0.3040600000     1.1771600000     0.0000000000     -2.966471014     -4.164396159     -0.000000000
