       3
Lattice="15.0 0.0 0.0 0.0 15.0 0.0 0.0 0.0 15.0" Properties=species:S:1:pos:R:3:forces:R:3 energy=        6.6053094924 pbc="T T T"
       O     0.0000000000     0.0000000000     0.0000000000    -36.940682111    -23.371366691     -0.000000000
       H     0.7000000000     0.0000000000     0.0000000000     37.816419647     -5.248558214     -0.000000000
       H     0.1060600000     0.7291700000     0.0000000000     -0.875737485     28.619924905     -0.000000000
