       3
Lattice="15.0 0.0 0.0 0.0 15.0 0.0 0.0 0.0 15.0" Properties=species:S:1:pos:R:3:forces:R:3 energy=        0.6146455243 pbc="T T T"
       O     0.0000000000     0.0000000000     0.0000000000     -1.346603267     -0.005562584     -0.000000000
       H     0.9947400000     0.0000000000     0.0000000000     -2.173197074      1.627219974     -0.000000000
       H    -0.6819200000     0.7740500000     0.0000000000      3.519800289     -1.621657442     -0.000000000
