       3
Lattice="15.0 0.0 0.0 0.0 15.0 0.0 0.0 0.0 15.0" Properties=species:S:1:pos:R:3:forces:R:3 energy=        2.3375614988 pbc="T T T"
       O     0.0000000000     0.0000000000     0.0000000000      4.464553877      3.097105999     -0.000000000
       H     1.4000000000     0.0000000000     0.0000000000     -5.827277300      0.392157798     -0.000000000
       H    -0.2484800000     1.0391200000     0.0000000000      1.362723423     -3.489263796     -0.000000000
