       3
Lattice="15.0 0.0 0.0 0.0 15.0 0.0 0.0 0.0 15.0" Properties=species:S:1:pos:R:3:forces:R:3 energy=        4.3873120400 pbc="T T T"
       O     0.0000000000     0.0000000000     0.0000000000    -25.094024003      7.149133532     -0.000000000
       H     0.7368400000     0.0000000000     0.0000000000     27.741957656     -2.539935288     -0.000000000
       H     0.3317000000     1.2841700000     0.0000000000     -2.647933653     -4.609198296     -0.000000000
