       3
Lattice="15.0 0.0 0.0 0.0 15.0 0.0 0.0 0.0 15.0" Properties=species:S:1:pos:R:3:forces:R:3 energy=        4.0918247994 pbc="T T T"
       O     0.0000000000     0.0000000000     0.0000000000      6.608477591      5.716796430     -0.000000000
       H     1.4000000000     0.0000000000     0.0000000000     -5.475294962     -0.348724029     -0.000000000
       H     0.2015100000     1.3854200000     0.0000000000     -1.133182629     -5.368072402     -0.000000000
