       3
Lattice="15.0 0.0 0.0 0.0 15.0 0.0 0.0 0.0 15.0" Properties=species:S:1:pos:R:3:forces:R:3 energy=        0.8827029394 pbc="T T T"
       O     0.0000000000     0.0000000000     0.0000000000     -3.369641417      5.011250577     -0.000000000
       H     0.8842100000     0.0000000000     0.0000000000      5.996477205     -2.517082850     -0.000000000
       H     0.2108000000     1.0474200000     0.0000000000     -2.626835839     -2.494167728     -0.000000000
