       3
Lattice="15.0 0.0 0.0 0.0 15.0 0.0 0.0 0.0 15.0" Properties=species:S:1:pos:R:3:forces:R:3 energy=        2.1276224367 pbc="T T T"
       O     0.0000000000     0.0000000000     0.0000000000      7.802478151      4.541055442     -0.000000000
       H     1.2894700000     0.0000000000     0.0000000000     -5.197436021     -1.285393807     -0.000000000
       H     0.3339400000     1.0536000000     0.0000000000     -2.605042130     -3.255661635     -0.000000000
