       3
Lattice="15.0 0.0 0.0 0.0 15.0 0.0 0.0 0.0 15.0" Properties=species:S:1:pos:R:3:forces:R:3 energy=        0.9361030014 pbc="T T T"
       O     0.0000000000     0.0000000000     0.0000000000      0.833786986      6.206785521     -0.000000000
       H     0.9578900000     0.0000000000     0.0000000000      0.619758950     -1.229405490     -0.000000000
       H     0.1062900000     1.1741500000     0.0000000000     -1.453545936     -4.977380031     -0.000000000
