       3
Lattice="15.0 0.0 0.0 0.0 15.0 0.0 0.0 0.0 15.0" Properties=species:S:1:pos:R:3:forces:R:3 energy=        1.0075399374 pbc="T T T"
       O     0.0000000000     0.0000000000     0.0000000000      6.402025160     -4.988201192     -0.000000000
       H     1.1789500000     0.0000000000     0.0000000000     -5.430856971     -0.433100578     -0.000000000
       H    -0.0638000000     0.8819100000     0.0000000000     -0.971168189      5.421301719     -0.000000000
