       3
Lattice="15.0 0.0 0.0 0.0 15.0 0.0 0.0 0.0 15.0" Properties=species:S:1:pos:R:3:forces:R:3 energy=        1.5994644333 pbc="T T T"
       O     0.0000000000     0.0000000000     0.0000000000      4.060885657      6.036754069     -0.000000000
       H     0.9947400000     0.0000000000     0.0000000000     -0.589662785     -2.397444735     -0.000000000
       H     0.4295500000     1.1373800000     0.0000000000     -3.471222871     -3.639309334     -0.000000000
