       3
Lattice="15.0 0.0 0.0 0.0 15.0 0.0 0.0 0.0 15.0" Properties=species:S:1:pos:R:3:forces:R:3 energy=        2.6475420704 pbc="T T T"
       O     0.0000000000     0.0000000000     0.0000000000     15.511109140    -11.591649702     -0.000000000
       H     1.2157900000     0.0000000000     0.0000000000     -6.785637275      1.513374815     -0.000000000
       H    -0.6271300000     0.5134900000     0.0000000000     -8.725471917     10.078274887     -0.000000000
