       3
Lattice="15.0 0.0 0.0 0.0 15.0 0.0 0.0 0.0 15.0" Properties=species:S:1:pos:R:3:forces:R:3 energy=        3.2936358833 pbc="T T T"
       O     0.0000000000     0.0000000000     0.0000000000      8.146392774      5.612172897     -0.000000000
       H     1.3263200000     0.0000000000     0.0000000000     -5.259673819     -1.062870946     -0.000000000
       H     0.4555800000     1.2063100000     0.0000000000     -2.886718956     -4.549301951     -0.000000000
