       3
Lattice="15.0 0.0 0.0 0.0 15.0 0.0 0.0 0.0 15.0" Properties=species:S:1:pos:R:3:forces:R:3 energy=        2.4763210446 pbc="T T T"
       O     0.0000000000     0.0000000000     0.0000000000    -10.793399904    -11.338712836     -0.000000000
       H     0.7736800000     0.0000000000     0.0000000000     18.499991340      1.478095355     -0.000000000
       H    -0.5679300000     0.5782800000     0.0000000000     -7.706591435      9.860617532     -0.000000000
