       3
Lattice="15.0 0.0 0.0 0.0 15.0 0.0 0.0 0.0 15.0" Properties=species:S:1:pos:R:3:forces:R:3 energy=        5.0508055696 pbc="T T T"
       O     0.0000000000     0.0000000000     0.0000000000    -41.586420222      2.876774592     -0.000000000
       H     0.7000000000     0.0000000000     0.0000000000     36.800905153      1.986737808     -0.000000000
       H    -0.7215600000     1.0239300000     0.0000000000      4.785515121     -4.863512400     -0.000000000
