       3
Lattice="15.0 0.0 0.0 0.0 15.0 0.0 0.0 0.0 15.0" Properties=species:S:1:pos:R:3:forces:R:3 energy=        2.5580083818 pbc="T T T"
       O     0.0000000000     0.0000000000     0.0000000000      2.414327840      4.295508495     -0.000000000
       H     1.1789500000     0.0000000000     0.0000000000     -5.489207053      0.920060599     -0.000000000
       H    -0.5130900000     1.2230600000     0.0000000000      3.074879213     -5.215569043     -0.000000000
