       3
Lattice="15.0 0.0 0.0 0.0 15.0 0.0 0.0 0.0 15.0" Properties=species:S:1:pos:R:3:forces:R:3 energy=        3.7367538455 pbc="T T T"
       O     0.0000000000     0.0000000000     0.0000000000      3.665106201      4.691635204     -0.000000000
       H     1.3263200000     0.0000000000     0.0000000000     -5.822614345      0.593681370     -0.000000000
       H    -0.3988300000     1.3419900000     0.0000000000      2.157508092     -5.285316625     -0.000000000
