       3
Lattice="15.0 0.0 0.0 0.0 15.0 0.0 0.0 0.0 15.0" Properties=species:S:1:pos:R:3:forces:R:3 energy=        0.6601370786 pbc="T T T"
       O     0.0000000000     0.0000000000     0.0000000000     -0.929618885     -2.598623059     -0.000000000
       H     0.9578900000     0.0000000000     0.0000000000     -0.772803321      1.741606300     -0.000000000
       H    -0.7411400000     0.6068400000     0.0000000000      1.702422206      0.857016760     -0.000000000
