       3
Lattice="15.0 0.0 0.0 0.0 15.0 0.0 0.0 0.0 15.0" Properties=species:S:1:pos:R:3:forces:R:3 energy=        2.6092813488 pbc="T T T"
       O     0.0000000000     0.0000000000     0.0000000000     10.062743977    -13.709278731     -0.000000000
       H     1.3263200000     0.0000000000     0.0000000000     -6.305871461      0.544069494     -0.000000000
       H    -0.2726300000     0.7633000000     0.0000000000     -3.756872516     13.165209237     -0.000000000
