       3
Lattice="15.0 0.0 0.0 0.0 15.0 0.0 0.0 0.0 15.0" Properties=species:S:1:pos:R:3:forces:R:3 energy=        4.7932149705 pbc="T T T"
       O     0.0000000000     0.0000000000     0.0000000000     22.717399711    -23.185531535     -0.000000000
       H     1.3631600000     0.0000000000     0.0000000000     -6.573864458      1.279622912     -0.000000000
       H    -0.4870800000     0.5528900000     0.0000000000    -16.143535253     21.905908622     -0.000000000
