       3
Lattice="15.0 0.0 0.0 0.0 15.0 0.0 0.0 0.0 15.0" Properties=species:S:1:pos:R:3:forces:R:3 energy=        1.2027898553 pbc="T T T"
       O     0.0000000000     0.0000000000     0.0000000000      5.632174186      5.432252155     -0.000000000
       H     1.1421100000     0.0000000000     0.0000000000     -4.843456192     -0.614278847     -0.000000000
       H     0.0412300000     1.1413700000     0.0000000000     -0.788717994     -4.817973308     -0.000000000
