       3
Lattice="15.0 0.0 0.0 0.0 15.0 0.0 0.0 0.0 15.0" Properties=species:S:1:pos:R:3:forces:R:3 energy=        2.5432463301 pbc="T T T"
       O     0.0000000000     0.0000000000     0.0000000000    -16.905168926      5.480935965     -0.000000000
       H     0.7736800000     0.0000000000     0.0000000000     20.470523528     -4.129742711     -0.000000000
       H     0.3228100000     1.0184900000     0.0000000000     -3.565354602     -1.351193254     -0.000000000
