       3
Lattice="15.0 0.0 0.0 0.0 15.0 0.0 0.0 0.0 15.0" Properties=species:S:1:pos:R:3:forces:R:3 energy=        1.8562674451 pbc="T T T"
       O     0.0000000000     0.0000000000     0.0000000000      6.658958448      6.001145148     -0.000000000
       H     1.1789500000     0.0000000000     0.0000000000     -5.085013042     -0.840141985     -0.000000000
       H     0.1750000000     1.2031300000     0.0000000000     -1.573945406     -5.161003163     -0.000000000
