       3
Lattice="15.0 0.0 0.0 0.0 15.0 0.0 0.0 0.0 15.0" Properties=species:S:1:pos:R:3:forces:R:3 energy=        3.3601172341 pbc="T T T"
       O     0.0000000000     0.0000000000     0.0000000000      7.539424142      5.824778238     -0.000000000
       H     1.2894700000     0.0000000000     0.0000000000     -5.479619508     -0.772631623     -0.000000000
       H     0.3409100000     1.3198400000     0.0000000000     -2.059804686     -5.052146666     -0.000000000
