       3
Lattice="15.0 0.0 0.0 0.0 15.0 0.0 0.0 0.0 15.0" Properties=species:S:1:pos:R:3:forces:R:3 energy=        0.7571742824 pbc="T T T"
       O     0.0000000000     0.0000000000     0.0000000000      0.593758503      4.156827650     -0.000000000
       H     1.0315800000     0.0000000000     0.0000000000     -2.978867799      0.684053015     -0.000000000
       H    -0.3841600000     1.0755600000     0.0000000000      2.385109296     -4.840880717     -0.000000000
