       3
Lattice="15.0 0.0 0.0 0.0 15.0 0.0 0.0 0.0 15.0" Properties=species:S:1:pos:R:3:forces:R:3 energy=        1.7655229749 pbc="T T T"
       O     0.0000000000     0.0000000000     0.0000000000      6.335724760      4.157783176     -0.000000000
       H     1.0684200000     0.0000000000     0.0000000000     -2.139665142     -3.332109258     -0.000000000
       H     0.5526300000     0.9571800000     0.0000000000     -4.196059618     -0.825673866     -0.000000000
