       3
Lattice="15.0 0.0 0.0 0.0 15.0 0.0 0.0 0.0 15.0" Properties=species:S:1:pos:R:3:forces:R:3 energy=        0.7700031856 pbc="T T T"
       O     0.0000000000     0.0000000000     0.0000000000     -8.214316467     -3.575257622     -0.000000000
       H     0.8473700000     0.0000000000     0.0000000000      8.102857601      1.547723484     -0.000000000
       H    -0.6088500000     0.6911100000     0.0000000000      0.111458866      2.027534086     -0.000000000
