       3
Lattice="15.0 0.0 0.0 0.0 15.0 0.0 0.0 0.0 15.0" Properties=species:S:1:pos:R:3:forces:R:3 energy=        0.6707867035 pbc="T T T"
       O     0.0000000000     0.0000000000     0.0000000000      0.843529312     -3.978945691     -0.000000000
       H     0.9578900000     0.0000000000     0.0000000000     -0.842086357      1.696894949     -0.000000000
       H    -0.7126400000     0.5835000000     0.0000000000     -0.001442955      2.282050742     -0.000000000
