       3
Lattice="15.0 0.0 0.0 0.0 15.0 0.0 0.0 0.0 15.0" Properties=species:S:1:pos:R:3:forces:R:3 energy=        4.2523834138 pbc="T T T"
       O     0.0000000000     0.0000000000     0.0000000000    -30.041509752    -11.821657614     -0.000000000
       H     0.7000000000     0.0000000000     0.0000000000     36.219556856      0.746625365     -0.000000000
       H    -0.4303400000     0.6868500000     0.0000000000     -6.178047053     11.075032250     -0.000000000
