       3
Lattice="15.0 0.0 0.0 0.0 15.0 0.0 0.0 0.0 15.0" Properties=species:S:1:pos:R:3:forces:R:3 energy=        3.4118185328 pbc="T T T"
       O     0.0000000000     0.0000000000     0.0000000000      1.774189597      3.168674592     -0.000000000
       H     1.2894700000     0.0000000000     0.0000000000     -5.894667796      1.203704525     -0.000000000
       H    -0.7042000000     1.1239400000     0.0000000000      4.120478199     -4.372379117     -0.000000000
