       3
Lattice="15.0 0.0 0.0 0.0 15.0 0.0 0.0 0.0 15.0" Properties=species:S:1:pos:R:3:forces:R:3 energy=        3.7004584961 pbc="T T T"
       O     0.0000000000     0.0000000000     0.0000000000    -36.350278385     -3.331304811     -0.000000000
       H     0.7000000000     0.0000000000     0.0000000000     36.206451012      1.625599150     -0.000000000
       H    -0.6088500000     0.6911100000     0.0000000000      0.143827322      1.705705661     -0.000000000
