       3
Lattice="15.0 0.0 0.0 0.0 15.0 0.0 0.0 0.0 15.0" Properties=species:S:1:pos:R:3:forces:R:3 energy=        2.4378190477 pbc="T T T"
       O     0.0000000000     0.0000000000     0.0000000000      1.911815929      2.133028659     -0.000000000
       H     1.2894700000     0.0000000000     0.0000000000     -6.119246564      1.296464263     -0.000000000
       H    -0.6579000000     0.9335900000     0.0000000000      4.207430635     -3.429492922     -0.000000000
