       3
Lattice="15.0 0.0 0.0 0.0 15.0 0.0 0.0 0.0 15.0" Properties=species:S:1:pos:R:3:forces:R:3 energy=        2.0978789468 pbc="T T T"
       O     0.0000000000     0.0000000000     0.0000000000      7.807144088      3.700178893     -0.000000000
       H     1.2894700000     0.0000000000     0.0000000000     -5.013583700     -1.530143918     -0.000000000
       H     0.3774800000     0.9995200000     0.0000000000     -2.793560388     -2.170034975     -0.000000000
