       3
Lattice="15.0 0.0 0.0 0.0 15.0 0.0 0.0 0.0 15.0" Properties=species:S:1:pos:R:3:forces:R:3 energy=        3.1201273350 pbc="T T T"
       O     0.0000000000     0.0000000000     0.0000000000     -7.399726477    -25.029430353     -0.000000000
       H     0.8473700000     0.0000000000     0.0000000000      9.549086020     -2.739482761     -0.000000000
       H     0.0266000000     0.7363600000     0.0000000000     -2.149359594     27.768913114     -0.000000000
