       3
Lattice="15.0 0.0 0.0 0.0 15.0 0.0 0.0 0.0 15.0" Properties=species:S:1:pos:R:3:forces:R:3 energy=        1.6193951844 pbc="T T T"
       O     0.0000000000     0.0000000000     0.0000000000      5.959871620     -8.412599625     -0.000000000
       H     1.2157900000     0.0000000000     0.0000000000     -5.330026742     -1.030522339     -0.000000000
       H     0.0763900000     0.8439200000     0.0000000000     -0.629844879      9.443122015     -0.000000000
