       3
Lattice="15.0 0.0 0.0 0.0 15.0 0.0 0.0 0.0 15.0" Properties=species:S:1:pos:R:3:forces:R:3 energy=        5.3416327133 pbc="T T T"
       O     0.0000000000     0.0000000000     0.0000000000     -9.450649695    -32.713112477     -0.000000000
       H     1.1052600000     0.0000000000     0.0000000000     -2.164085080     -3.941737389     -0.000000000
       H     0.3166700000     0.6242800000     0.0000000000     11.614734774     36.654849866     -0.000000000
