       3
Lattice="15.0 0.0 0.0 0.0 15.0 0.0 0.0 0.0 15.0" Properties=species:S:1:pos:R:3:forces:R:3 energy=        2.2341443895 pbc="T T T"
       O     0.0000000000     0.0000000000     0.0000000000      6.286720539     -0.411342299     -0.000000000
       H     1.2526300000     0.0000000000     0.0000000000     -4.096073945     -2.603512066     -0.000000000
       H     0.4789500000     0.8295600000     0.0000000000     -2.190646594      3.014854364     -0.000000000
