       3
Lattice="15.0 0.0 0.0 0.0 15.0 0.0 0.0 0.0 15.0" Properties=species:S:1:pos:R:3:forces:R:3 energy=        3.4578189210 pbc="T T T"
       O     0.0000000000     0.0000000000     0.0000000000      4.458114752      5.278907530     -0.000000000
       H     1.3263200000     0.0000000000     0.0000000000     -5.824726661      0.343962395     -0.000000000
       H    -0.2447900000     1.3410000000     0.0000000000      1.366611909     -5.622869925     -0.000000000
