       3
Lattice="15.0 0.0 0.0 0.0 15.0 0.0 0.0 0.0 15.0" Properties=species:S:1:pos:R:3:forces:R:3 energy=        0.6858747775 pbc="T T T"
       O     0.0000000000     0.0000000000     0.0000000000      6.161254502     -8.599770675     -0.000000000
       H     1.0684200000     0.0000000000     0.0000000000     -4.048867338     -0.036464893     -0.000000000
       H    -0.1970700000     0.8241400000     0.0000000000     -2.112387164      8.636235569     -0.000000000
