       3
Lattice="15.0 0.0 0.0 0.0 15.0 0.0 0.0 0.0 15.0" Properties=species:S:1:pos:R:3:forces:R:3 energy=        2.4021878276 pbc="T T T"
       O     0.0000000000     0.0000000000     0.0000000000     -3.786031256      1.514827386     -0.000000000
       H     0.9947400000     0.0000000000     0.0000000000     -1.708877221      1.970758754     -0.000000000
       H    -0.9293500000     0.9462800000     0.0000000000      5.494908477     -3.485586140     -0.000000000
