       3
Lattice="15.0 0.0 0.0 0.0 15.0 0.0 0.0 0.0 15.0" Properties=species:S:1:pos:R:3:forces:R:3 energy=        1.1779429156 pbc="T T T"
       O     0.0000000000     0.0000000000     0.0000000000      6.823778117      4.201645753     -0.000000000
       H     1.1421100000     0.0000000000     0.0000000000     -4.357994302     -1.632281759     -0.000000000
       H     0.2672000000     1.0344700000     0.0000000000     -2.465783815     -2.569363994     -0.000000000
