       3
Lattice="15.0 0.0 0.0 0.0 15.0 0.0 0.0 0.0 15.0" Properties=species:S:1:pos:R:3:forces:R:3 energy=        3.1034838772 pbc="T T T"
       O     0.0000000000     0.0000000000     0.0000000000     21.843999720    -22.669980576     -0.000000000
       H     1.1052600000     0.0000000000     0.0000000000     -5.661127393      1.315514192     -0.000000000
       H    -0.4870800000     0.5528900000     0.0000000000    -16.182872276     21.354466384     -0.000000000
