       3
Lattice="15.0 0.0 0.0 0.0 15.0 0.0 0.0 0.0 15.0" Properties=species:S:1:pos:R:3:forces:R:3 energy=        4.6146692953 pbc="T T T"
       O     0.0000000000     0.0000000000     0.0000000000    -10.911389838    -34.159288189     -0.000000000
       H     0.8473700000     0.0000000000     0.0000000000     10.014994146     -3.778341597     -0.000000000
       H     0.1007600000     0.6927100000     0.0000000000      0.896395691     37.937629786     -0.000000000
