       3
Lattice="15.0 0.0 0.0 0.0 15.0 0.0 0.0 0.0 15.0" Properties=species:S:1:pos:R:3:forces:R:3 energy=        2.2742417165 pbc="T T T"
       O     0.0000000000     0.0000000000     0.0000000000      6.586699102      2.895172078     -0.000000000
       H     1.4000000000     0.0000000000     0.0000000000     -5.411028562     -0.615488654     -0.000000000
       H     0.1484800000     1.0208400000     0.0000000000     -1.175670540     -2.279683475     -0.000000000
