       3
Lattice="15.0 0.0 0.0 0.0 15.0 0.0 0.0 0.0 15.0" Properties=species:S:1:pos:R:3:forces:R:3 energy=        1.4722401315 pbc="T T T"
       O     0.0000000000     0.0000000000     0.0000000000      3.153203640      6.426982304     -0.000000000
       H     0.9947400000     0.0000000000     0.0000000000     -0.964875822     -1.469869518     -0.000000000
       H     0.2471500000     1.2280100000     0.0000000000     -2.188327817     -4.957112786     -0.000000000
