       3
Lattice="15.0 0.0 0.0 0.0 15.0 0.0 0.0 0.0 15.0" Properties=species:S:1:pos:R:3:forces:R:3 energy=        1.9955465188 pbc="T T T"
       O     0.0000000000     0.0000000000     0.0000000000      3.811929734     -7.979612072     -0.000000000
       H     1.1789500000     0.0000000000     0.0000000000     -4.108379405     -2.448849596     -0.000000000
       H     0.2993800000     0.7927200000     0.0000000000      0.296449723     10.428461669     -0.000000000
