       3
Lattice="15.0 0.0 0.0 0.0 15.0 0.0 0.0 0.0 15.0" Properties=species:S:1:pos:R:3:forces:R:3 energy=        4.6734605886 pbc="T T T"
       O     0.0000000000     0.0000000000     0.0000000000      0.231076926      0.647253672     -0.000000000
       H     1.3631600000     0.0000000000     0.0000000000     -5.610245751      1.638934903     -0.000000000
       H    -1.0547100000     0.8635900000     0.0000000000      5.379168825     -2.286188524     -0.000000000
