       3
Lattice="15.0 0.0 0.0 0.0 15.0 0.0 0.0 0.0 15.0" Properties=species:S:1:pos:R:3:forces:R:3 energy=        6.4391449107 pbc="T T T"
       O     0.0000000000     0.0000000000     0.0000000000    -10.923126004    -32.584493701     -0.000000000
       H     1.3631600000     0.0000000000     0.0000000000     -3.965075252     -2.348145865     -0.000000000
       H     0.3500000000     0.6062200000     0.0000000000     14.888201256     34.932639566     -0.000000000
