       3
Lattice="15.0 0.0 0.0 0.0 15.0 0.0 0.0 0.0 15.0" Properties=species:S:1:pos:R:3:forces:R:3 energy=        0.6351370667 pbc="T T T"
       O     0.0000000000     0.0000000000     0.0000000000      2.944039054      4.451112143     -0.000000000
       H     1.0684200000     0.0000000000     0.0000000000     -3.836571352      0.068695127     -0.000000000
       H    -0.1984700000     1.0872900000     0.0000000000      0.892532299     -4.519807321     -0.000000000
