       3
Lattice="15.0 0.0 0.0 0.0 15.0 0.0 0.0 0.0 15.0" Properties=species:S:1:pos:R:3:forces:R:3 energy=        2.2132835832 pbc="T T T"
       O     0.0000000000     0.0000000000     0.0000000000      6.282664107      5.166458224     -0.000000000
       H     1.3263200000     0.0000000000     0.0000000000     -5.723066583     -0.331256768     -0.000000000
       H     0.0412300000     1.1413700000     0.0000000000     -0.559597525     -4.835201456     -0.000000000
