       3
Lattice="15.0 0.0 0.0 0.0 15.0 0.0 0.0 0.0 15.0" Properties=species:S:1:pos:R:3:forces:R:3 energy=        3.7007223785 pbc="T T T"
       O     0.0000000000     0.0000000000     0.0000000000      0.429209829      1.106718200     -0.000000000
       H     1.2894700000     0.0000000000     0.0000000000     -5.933930977      1.665845470     -0.000000000
       H    -0.9520100000     0.8697200000     0.0000000000      5.504721149     -2.772563670     -0.000000000
