       3
Lattice="15.0 0.0 0.0 0.0 15.0 0.0 0.0 0.0 15.0" Properties=species:S:1:pos:R:3:forces:R:3 energy=        1.2037052626 pbc="T T T"
       O     0.0000000000     0.0000000000     0.0000000000      9.314274976     -9.013638673     -0.000000000
       H     1.1052600000     0.0000000000     0.0000000000     -5.420228488      1.313282988     -0.000000000
       H    -0.5249000000     0.6652200000     0.0000000000     -3.894046436      7.700355685     -0.000000000
