       3
Lattice="15.0 0.0 0.0 0.0 15.0 0.0 0.0 0.0 15.0" Properties=species:S:1:pos:R:3:forces:R:3 energy=        3.0445190024 pbc="T T T"
       O     0.0000000000     0.0000000000     0.0000000000      8.142380823      5.117850878     -0.000000000
       H     1.1789500000     0.0000000000     0.0000000000     -4.341346658     -1.884541860     -0.000000000
       H     0.6631600000     1.1486300000     0.0000000000     -3.801034113     -3.233308968     -0.000000000
