       3
Lattice="15.0 0.0 0.0 0.0 15.0 0.0 0.0 0.0 15.0" Properties=species:S:1:pos:R:3:forces:R:3 energy=        2.7639797354 pbc="T T T"
       O     0.0000000000     0.0000000000     0.0000000000    -15.008299598      5.715252019     -0.000000000
       H     0.8105300000     0.0000000000     0.0000000000     13.795081678      0.215942737     -0.000000000
       H    -0.2447900000     1.3410000000     0.0000000000      1.213217920     -5.931194756     -0.000000000
