       3
Lattice="15.0 0.0 0.0 0.0 15.0 0.0 0.0 0.0 15.0" Properties=species:S:1:pos:R:3:forces:R:3 energy=        0.4389333245 pbc="T T T"
       O     0.0000000000     0.0000000000     0.0000000000     -0.201077691      5.069842601     -0.000000000
       H     0.9578900000     0.0000000000     0.0000000000      0.377492938     -0.577075481     -0.000000000
       H    -0.0797500000     1.1023800000     0.0000000000     -0.176415247     -4.492767171     -0.000000000
