       3
Lattice="15.0 0.0 0.0 0.0 15.0 0.0 0.0 0.0 15.0" Properties=species:S:1:pos:R:3:forces:R:3 energy=        1.6295773204 pbc="T T T"
       O     0.0000000000     0.0000000000     0.0000000000      2.638028936      5.252373682     -0.000000000
       H     0.9578900000     0.0000000000     0.0000000000      1.587079482     -3.603151533     -0.000000000
       H     0.5166700000     1.0185600000     0.0000000000     -4.225108418     -1.649222149     -0.000000000
