       3
Lattice="15.0 0.0 0.0 0.0 15.0 0.0 0.0 0.0 15.0" Properties=species:S:1:pos:R:3:forces:R:3 energy=        0.7026511766 pbc="T T T"
       O     0.0000000000     0.0000000000     0.0000000000      1.400218043      4.749642352     -0.000000000
       H     1.0315800000     0.0000000000     0.0000000000     -2.871135183      0.286987390     -0.000000000
       H    -0.2656200000     1.1107900000     0.0000000000      1.470917140     -5.036629743     -0.000000000
