       3
Lattice="15.0 0.0 0.0 0.0 15.0 0.0 0.0 0.0 15.0" Properties=species:S:1:pos:R:3:forces:R:3 energy=        2.1188752496 pbc="T T T"
       O     0.0000000000     0.0000000000     0.0000000000      5.651327525      6.218122651     -0.000000000
       H     1.1052600000     0.0000000000     0.0000000000     -4.175638827     -0.819986172     -0.000000000
       H     0.1909100000     1.3125100000     0.0000000000     -1.475688698     -5.398136479     -0.000000000
