       3
Lattice="15.0 0.0 0.0 0.0 15.0 0.0 0.0 0.0 15.0" Properties=species:S:1:pos:R:3:forces:R:3 energy=        0.6394437257 pbc="T T T"
       O     0.0000000000     0.0000000000     0.0000000000      5.683840169     -2.539572042     -0.000000000
       H     1.1421100000     0.0000000000     0.0000000000     -5.308167367      0.152968369     -0.000000000
       H    -0.2142100000     0.8958000000     0.0000000000     -0.375672802      2.386603673     -0.000000000
