       3
Lattice="15.0 0.0 0.0 0.0 15.0 0.0 0.0 0.0 15.0" Properties=species:S:1:pos:R:3:forces:R:3 energy=        2.4472743676 pbc="T T T"
       O     0.0000000000     0.0000000000     0.0000000000      3.542995250      5.495592957     -0.000000000
       H     1.1052600000     0.0000000000     0.0000000000     -4.407903860      0.180540172     -0.000000000
       H    -0.1764700000     1.3888300000     0.0000000000      0.864908610     -5.676133129     -0.000000000
