       3
Lattice="15.0 0.0 0.0 0.0 15.0 0.0 0.0 0.0 15.0" Properties=species:S:1:pos:R:3:forces:R:3 energy=        3.0712288145 pbc="T T T"
       O     0.0000000000     0.0000000000     0.0000000000    -18.580124075      6.965390947     -0.000000000
       H     0.7736800000     0.0000000000     0.0000000000     19.968813287     -1.481003017     -0.000000000
       H     0.1162500000     1.2842200000     0.0000000000     -1.388689263     -5.484387930     -0.000000000
