       3
Lattice="15.0 0.0 0.0 0.0 15.0 0.0 0.0 0.0 15.0" Properties=species:S:1:pos:R:3:forces:R:3 energy=        2.2491942071 pbc="T T T"
       O    -0.0012524200    -0.0207874500     0.0000000000    -14.476309769     -0.458540782     -0.000000000
       H     0.7443088800     0.2475176300     0.0000000000     17.956859784      1.640841942     -0.000000000
       H    -0.0031117500     1.0113397000     0.0000000000     -3.480550015     -1.182301161     -0.000000000
