       3
Lattice="15.0 0.0 0.0 0.0 15.0 0.0 0.0 0.0 15.0" Properties=species:S:1:pos:R:3:forces:R:3 energy=        2.2928242033 pbc="T T T"
       O    -0.0159897600    -0.0397236100     0.0000000000      4.235907416      7.551084872     -0.000000000
       H     1.0443316900     0.2558332800     0.0000000000     -3.533088528     -2.146622396     -0.000000000
       H    -0.0692418100     1.3035561400     0.0000000000     -0.702818889     -5.404462528     -0.000000000
