       3
Lattice="15.0 0.0 0.0 0.0 15.0 0.0 0.0 0.0 15.0" Properties=species:S:1:pos:R:3:forces:R:3 energy=        1.2765697759 pbc="T T T"
       O     0.0024894100    -0.0139438600     0.0000000000      0.206981821      5.032048960     -0.000000000
       H     1.0185844600    -0.0331421000     0.0000000000     -2.333867392      0.652352583     -0.000000000
       H    -0.3367801900     1.1833893300     0.0000000000      2.126885570     -5.684401544     -0.000000000
