       3
Lattice="15.0 0.0 0.0 0.0 15.0 0.0 0.0 0.0 15.0" Properties=species:S:1:pos:R:3:forces:R:3 energy=        1.7407170863 pbc="T T T"
       O    -0.0290912800    -0.0062164600     0.0000000000      6.659882606     -2.473424469     -0.000000000
       H     1.2814081200     0.1276205000     0.0000000000     -5.671800870     -1.074859903     -0.000000000
       H    -0.0983914100     0.8999872000     0.0000000000     -0.988081685      3.548284372     -0.000000000
