       3
Lattice="15.0 0.0 0.0 0.0 15.0 0.0 0.0 0.0 15.0" Properties=species:S:1:pos:R:3:forces:R:3 energy=        1.3066272552 pbc="T T T"
       O    -0.0029591000     0.0167587600     0.0000000000      5.225469183     -4.613761543     -0.000000000
       H     1.1775656300    -0.1861907500     0.0000000000     -5.930210640      2.309528546     -0.000000000
       H    -0.4092939800     0.8491661000     0.0000000000      0.704741458      2.304232997     -0.000000000
