       3
Lattice="15.0 0.0 0.0 0.0 15.0 0.0 0.0 0.0 15.0" Properties=species:S:1:pos:R:3:forces:R:3 energy=        1.2249799705 pbc="T T T"
       O    -0.0030077600    -0.0206985200     0.0000000000      1.230552151      5.984516324     -0.000000000
       H     1.0142286600     0.0592711700     0.0000000000     -2.323879525     -0.240177350     -0.000000000
       H    -0.2451778700     1.1981770000     0.0000000000      1.093327374     -5.744338975     -0.000000000
