       3
Lattice="15.0 0.0 0.0 0.0 15.0 0.0 0.0 0.0 15.0" Properties=species:S:1:pos:R:3:forces:R:3 energy=        2.1176437330 pbc="T T T"
       O     0.0206803800    -0.0057588700     0.0000000000    -12.461560499      5.566366153     -0.000000000
       H     0.8541142300    -0.1554031700     0.0000000000      9.002684739      0.044241713     -0.000000000
       H    -0.4610169800     1.1757487400     0.0000000000      3.458875760     -5.610607917     -0.000000000
