       3
Lattice="15.0 0.0 0.0 0.0 15.0 0.0 0.0 0.0 15.0" Properties=species:S:1:pos:R:3:forces:R:3 energy=        1.5522562188 pbc="T T T"
       O    -0.0111778900    -0.0124394800     0.0000000000      4.029648435      4.891421429     -0.000000000
       H     1.1802859500     0.0049883600     0.0000000000     -5.622891882      0.263949267     -0.000000000
       H    -0.2815707700     1.1213836900     0.0000000000      1.593243447     -5.155370696     -0.000000000
