       3
Lattice="15.0 0.0 0.0 0.0 15.0 0.0 0.0 0.0 15.0" Properties=species:S:1:pos:R:3:forces:R:3 energy=        1.0750738083 pbc="T T T"
       O     0.0096160800    -0.0107258400     0.0000000000     -8.737839186      5.115176261     -0.000000000
       H     0.8761549500    -0.0205111600     0.0000000000      6.883807285      0.343508235     -0.000000000
       H    -0.3074557700     1.1196855000     0.0000000000      1.854031901     -5.458684496     -0.000000000
