       3
Lattice="15.0 0.0 0.0 0.0 15.0 0.0 0.0 0.0 15.0" Properties=species:S:1:pos:R:3:forces:R:3 energy=        2.0794309904 pbc="T T T"
       O    -0.0139785600     0.0085958800     0.0000000000      9.383298330    -20.000763167     -0.000000000
       H     1.1056156500     0.0312049400     0.0000000000     -4.960644147     -0.371921201     -0.000000000
       H    -0.1624515100     0.7613198600     0.0000000000     -4.422654183     20.372684367     -0.000000000
