       3
Lattice="15.0 0.0 0.0 0.0 15.0 0.0 0.0 0.0 15.0" Properties=species:S:1:pos:R:3:forces:R:3 energy=        1.2879590607 pbc="T T T"
       O     0.0111359800    -0.0110719500     0.0000000000     -7.695031596      5.186181217     -0.000000000
       H     0.8931044000    -0.0513134200     0.0000000000      5.369233410      0.509798267     -0.000000000
       H    -0.3485278800     1.1559810500     0.0000000000      2.325798186     -5.695979432     -0.000000000
