       3
Lattice="15.0 0.0 0.0 0.0 15.0 0.0 0.0 0.0 15.0" Properties=species:S:1:pos:R:3:forces:R:3 energy=        0.8674099038 pbc="T T T"
       O    -0.0085236900    -0.0240997000     0.0000000000      1.027832655      6.312673729     -0.000000000
       H     0.9498071200     0.1879913900     0.0000000000     -0.094506546     -1.558623115     -0.000000000
       H    -0.0932111300     1.1234350700     0.0000000000     -0.933326160     -4.754050562     -0.000000000
