       3
Lattice="15.0 0.0 0.0 0.0 15.0 0.0 0.0 0.0 15.0" Properties=species:S:1:pos:R:3:forces:R:3 energy=        0.7670017779 pbc="T T T"
       O     0.0108546400     0.0182667100     0.0000000000      1.021768911     -1.545696991     -0.000000000
       H     1.0282602700    -0.2452435400     0.0000000000     -3.603141043      2.615282119     -0.000000000
       H    -0.4792241400     0.8842864100     0.0000000000      2.581372132     -1.069585128     -0.000000000
