       3
Lattice="15.0 0.0 0.0 0.0 15.0 0.0 0.0 0.0 15.0" Properties=species:S:1:pos:R:3:forces:R:3 energy=        2.3228034988 pbc="T T T"
       O    -0.0181622600    -0.0030890700     0.0000000000      3.781317908    -17.530954082     -0.000000000
       H     0.9905294500     0.2089511000     0.0000000000     -0.881054683     -3.168627695     -0.000000000
       H     0.0190378700     0.7690209800     0.0000000000     -2.900263225     20.699581777     -0.000000000
