       3
Lattice="15.0 0.0 0.0 0.0 15.0 0.0 0.0 0.0 15.0" Properties=species:S:1:pos:R:3:forces:R:3 energy=        2.0569604320 pbc="T T T"
       O     0.0192099800     0.0048707300     0.0000000000     -2.540605626      2.455527474     -0.000000000
       H     0.9899016000    -0.2762177500     0.0000000000     -1.782581167      2.495010124     -0.000000000
       H    -0.5734713100     1.1278648700     0.0000000000      4.323186794     -4.950537598     -0.000000000
