       3
Lattice="15.0 0.0 0.0 0.0 15.0 0.0 0.0 0.0 15.0" Properties=species:S:1:pos:R:3:forces:R:3 energy=        0.5586523696 pbc="T T T"
       O     0.0138912300     0.0188085900     0.0000000000     -0.611274409     -1.595902689     -0.000000000
       H     0.9699908700    -0.2391263400     0.0000000000     -1.637884041      2.158823160     -0.000000000
       H    -0.4691474800     0.8695689800     0.0000000000      2.249158398     -0.562920471     -0.000000000
