       3
Lattice="15.0 0.0 0.0 0.0 15.0 0.0 0.0 0.0 15.0" Properties=species:S:1:pos:R:3:forces:R:3 energy=        1.7853083982 pbc="T T T"
       O    -0.0006367000    -0.0217729600     0.0000000000    -12.208783607      1.930587408     -0.000000000
       H     0.7739245600     0.2200375000     0.0000000000     14.674768122      0.996681463     -0.000000000
       H    -0.0425001200     1.0544609200     0.0000000000     -2.465984516     -2.927268871     -0.000000000
