       3
Lattice="15.0 0.0 0.0 0.0 15.0 0.0 0.0 0.0 15.0" Properties=species:S:1:pos:R:3:forces:R:3 energy=        7.1624826891 pbc="T T T"
       O     0.0157010000    -0.0146859500     0.0000000000    -60.311572736     -4.634785824     -0.000000000
       H     0.6405089400     0.0999612000     0.0000000000     60.972483137      8.816870923     -0.000000000
       H    -0.1683787000     1.0620613300     0.0000000000     -0.660910401     -4.182085100     -0.000000000
