       3
Lattice="15.0 0.0 0.0 0.0 15.0 0.0 0.0 0.0 15.0" Properties=species:S:1:pos:R:3:forces:R:3 energy=        4.0460759370 pbc="T T T"
       O     0.0095955100    -0.0105501700     0.0000000000    -36.857425432     -3.507249751     -0.000000000
       H     0.6914688900     0.1226017800     0.0000000000     38.772842141      4.595542955     -0.000000000
       H    -0.1224396900     0.9737829400     0.0000000000     -1.915416709     -1.088293203     -0.000000000
