       3
Lattice="15.0 0.0 0.0 0.0 15.0 0.0 0.0 0.0 15.0" Properties=species:S:1:pos:R:3:forces:R:3 energy=        0.0450648498 pbc="T T T"
       O     0.0013902000    -0.0000102500     0.0000000000     -0.136296763      1.253810464     -0.000000000
       H     0.9715354800    -0.0269653700     0.0000000000     -0.643468389      0.337451279     -0.000000000
       H    -0.2722859900     0.9560756100     0.0000000000      0.779765152     -1.591261691     -0.000000000
