       3
Lattice="15.0 0.0 0.0 0.0 15.0 0.0 0.0 0.0 15.0" Properties=species:S:1:pos:R:3:forces:R:3 energy=        6.8634859989 pbc="T T T"
       O    -0.0110239900     0.0183284700     0.0000000000     18.923917857    -59.511851289     -0.000000000
       H     1.0561105700     0.0025674500     0.0000000000     -4.192916597     -0.139111505     -0.000000000
       H    -0.1598384900     0.6354938200     0.0000000000    -14.731001209     59.650962794     -0.000000000
