       3
Lattice="15.0 0.0 0.0 0.0 15.0 0.0 0.0 0.0 15.0" Properties=species:S:1:pos:R:3:forces:R:3 energy=        1.9943632889 pbc="T T T"
       O     0.0151187100    -0.0096727100     0.0000000000     -4.175496902      4.157261704     -0.000000000
       H     0.9516948700    -0.1503025100     0.0000000000      0.942334847      1.312453910     -0.000000000
       H    -0.4703298100     1.2327638700     0.0000000000      3.233162003     -5.469715614     -0.000000000
