       3
Lattice="15.0 0.0 0.0 0.0 15.0 0.0 0.0 0.0 15.0" Properties=species:S:1:pos:R:3:forces:R:3 energy=        0.4405580184 pbc="T T T"
       O    -0.0016295700    -0.0039157100     0.0000000000      1.837888502      3.194917083     -0.000000000
       H     1.0442267900    -0.0338902200     0.0000000000     -3.423189602      0.588896956     -0.000000000
       H    -0.2970515200     1.0249834300     0.0000000000      1.585301100     -3.783814039     -0.000000000
