       3
Lattice="15.0 0.0 0.0 0.0 15.0 0.0 0.0 0.0 15.0" Properties=species:S:1:pos:R:3:forces:R:3 energy=        2.0619925873 pbc="T T T"
       O    -0.0346010600    -0.0124045900     0.0000000000      6.228453143      1.128922360     -0.000000000
       H     1.3349061000     0.1734792900     0.0000000000     -5.392801335     -1.316550142     -0.000000000
       H    -0.0644438800     0.9523386300     0.0000000000     -0.835651756      0.187627782     -0.000000000
