       3
Lattice="15.0 0.0 0.0 0.0 15.0 0.0 0.0 0.0 15.0" Properties=species:S:1:pos:R:3:forces:R:3 energy=        1.0733185732 pbc="T T T"
       O     0.0097336100     0.0269478900     0.0000000000      5.515509605     -8.647387991     -0.000000000
       H     1.0277970100    -0.2584225000     0.0000000000     -4.016542385      2.766184040     -0.000000000
       H    -0.4609698200     0.7596887100     0.0000000000     -1.498967220      5.881204003     -0.000000000
