       3
Lattice="15.0 0.0 0.0 0.0 15.0 0.0 0.0 0.0 15.0" Properties=species:S:1:pos:R:3:forces:R:3 energy=        2.0909629989 pbc="T T T"
       O    -0.0214198600    -0.0314641300     0.0000000000      5.417412152      7.368607784     -0.000000000
       H     1.1451551600     0.2184366200     0.0000000000     -4.895090395     -1.897376864     -0.000000000
       H    -0.0838866500     1.2098693900     0.0000000000     -0.522321705     -5.471230920     -0.000000000
