       3
Lattice="15.0 0.0 0.0 0.0 15.0 0.0 0.0 0.0 15.0" Properties=species:S:1:pos:R:3:forces:R:3 energy=        2.7687852906 pbc="T T T"
       O    -0.0009733200     0.0293403700     0.0000000000     14.356958898    -20.375315944     -0.000000000
       H     1.1430906000    -0.2235372000     0.0000000000     -6.000944807      2.764167574     -0.000000000
       H    -0.4063358200     0.6868331700     0.0000000000     -8.356014091     17.611148370     -0.000000000
