       3
Lattice="15.0 0.0 0.0 0.0 15.0 0.0 0.0 0.0 15.0" Properties=species:S:1:pos:R:3:forces:R:3 energy=        0.5650445419 pbc="T T T"
       O    -0.0130301700    -0.0134817900     0.0000000000      4.309452931      4.308453646     -0.000000000
       H     1.0710985400     0.1158866600     0.0000000000     -3.984481433     -1.164253859     -0.000000000
       H    -0.1429835300     1.0270264400     0.0000000000     -0.324971498     -3.144199786     -0.000000000
