       3
Lattice="15.0 0.0 0.0 0.0 15.0 0.0 0.0 0.0 15.0" Properties=species:S:1:pos:R:3:forces:R:3 energy=        2.9997528193 pbc="T T T"
       O    -0.0027837200     0.0166373900     0.0000000000     11.050156815    -31.660484709     -0.000000000
       H     0.9785573300    -0.0334350400     0.0000000000     -1.504475143      0.189385131     -0.000000000
       H    -0.2130651200     0.6983349800     0.0000000000     -9.545681672     31.471099577     -0.000000000
