       3
Lattice="15.0 0.0 0.0 0.0 15.0 0.0 0.0 0.0 15.0" Properties=species:S:1:pos:R:3:forces:R:3 energy=        1.1536346389 pbc="T T T"
       O     0.0127529700    -0.0030647600     0.0000000000     -4.269675221      4.135124238     -0.000000000
       H     0.9451090300    -0.1368546300     0.0000000000      1.054459629      1.193632275     -0.000000000
       H    -0.4261977300     1.1144427800     0.0000000000      3.215215592     -5.328756513     -0.000000000
