       3
Lattice="15.0 0.0 0.0 0.0 15.0 0.0 0.0 0.0 15.0" Properties=species:S:1:pos:R:3:forces:R:3 energy=        2.2642259863 pbc="T T T"
       O     0.0127175200    -0.0035916100     0.0000000000    -26.522117394      2.041111729     -0.000000000
       H     0.7528092200     0.0145676800     0.0000000000     26.352081057      0.144099602     -0.000000000
       H    -0.2333314000     0.9713804100     0.0000000000      0.170036388     -2.185211330     -0.000000000
