       3
Lattice="15.0 0.0 0.0 0.0 15.0 0.0 0.0 0.0 15.0" Properties=species:S:1:pos:R:3:forces:R:3 energy=        1.7278084293 pbc="T T T"
       O    -0.0088185700    -0.0006012200     0.0000000000      3.492066866      2.697920962     -0.000000000
       H     1.2349147900    -0.1038105300     0.0000000000     -5.969254609      1.377175343     -0.000000000
       H    -0.3736465900     1.0423014100     0.0000000000      2.477187743     -4.075096305     -0.000000000
