       3
Lattice="15.0 0.0 0.0 0.0 15.0 0.0 0.0 0.0 15.0" Properties=species:S:1:pos:R:3:forces:R:3 energy=        0.8388464248 pbc="T T T"
       O     0.0181796700     0.0178974100     0.0000000000     -2.731131043      0.553649840     -0.000000000
       H     0.9495254500    -0.2732141100     0.0000000000     -0.839867493      2.157190046     -0.000000000
       H    -0.5167436200     0.9181179300     0.0000000000      3.570998536     -2.710839887     -0.000000000
