       3
Lattice="15.0 0.0 0.0 0.0 15.0 0.0 0.0 0.0 15.0" Properties=species:S:1:pos:R:3:forces:R:3 energy=        1.4877419873 pbc="T T T"
       O    -0.0067459000    -0.0209243900     0.0000000000      2.959046487      5.989803183     -0.000000000
       H     1.0782121000     0.0563670900     0.0000000000     -4.129936213     -0.256188028     -0.000000000
       H    -0.2498343500     1.2046660900     0.0000000000      1.170889726     -5.733615207     -0.000000000
