       3
Lattice="15.0 0.0 0.0 0.0 15.0 0.0 0.0 0.0 15.0" Properties=species:S:1:pos:R:3:forces:R:3 energy=        1.2298299020 pbc="T T T"
       O    -0.0217029300    -0.0158931600     0.0000000000      5.744810001      4.617241481     -0.000000000
       H     1.1818562400     0.1443620300     0.0000000000     -5.339469688     -1.323797314     -0.000000000
       H    -0.1160973900     1.0368216700     0.0000000000     -0.405340364     -3.293444168     -0.000000000
