       3
Lattice="15.0 0.0 0.0 0.0 15.0 0.0 0.0 0.0 15.0" Properties=species:S:1:pos:R:3:forces:R:3 energy=        1.2665519314 pbc="T T T"
       O    -0.0074896000    -0.0262253400     0.0000000000     -3.195826328      4.692926464     -0.000000000
       H     0.8432261400     0.2647077300     0.0000000000      5.819140166     -1.405353259     -0.000000000
       H    -0.0030399000     1.0804532100     0.0000000000     -2.623313838     -3.287573205     -0.000000000
