       3
Lattice="15.0 0.0 0.0 0.0 15.0 0.0 0.0 0.0 15.0" Properties=species:S:1:pos:R:3:forces:R:3 energy=        2.0408004306 pbc="T T T"
       O    -0.0148612800     0.0135352700     0.0000000000      6.622412513     -6.355850182     -0.000000000
       H     1.3037293600    -0.1273202400     0.0000000000     -6.201569830      1.595676689     -0.000000000
       H    -0.3465599100     0.8414550400     0.0000000000     -0.420842684      4.760173493     -0.000000000
