       3
Lattice="15.0 0.0 0.0 0.0 15.0 0.0 0.0 0.0 15.0" Properties=species:S:1:pos:R:3:forces:R:3 energy=        0.7992639563 pbc="T T T"
       O    -0.0125044600    -0.0207047800     0.0000000000      3.580033654      6.067473110     -0.000000000
       H     1.0303614400     0.1638006800     0.0000000000     -2.969615989     -1.598065913     -0.000000000
       H    -0.1105884800     1.0937463200     0.0000000000     -0.610417665     -4.469407248     -0.000000000
