       3
Lattice="15.0 0.0 0.0 0.0 15.0 0.0 0.0 0.0 15.0" Properties=species:S:1:pos:R:3:forces:R:3 energy=        0.1849727678 pbc="T T T"
       O    -0.0021956100    -0.0036999500     0.0000000000      1.567502784      2.529078903     -0.000000000
       H     1.0145536400    -0.0045523200     0.0000000000     -2.472822830      0.200941937     -0.000000000
       H    -0.2583941700     0.9922210000     0.0000000000      0.905320046     -2.730020840     -0.000000000
