       3
Lattice="15.0 0.0 0.0 0.0 15.0 0.0 0.0 0.0 15.0" Properties=species:S:1:pos:R:3:forces:R:3 energy=        0.6888092153 pbc="T T T"
       O     0.0091872300     0.0113392400     0.0000000000     -5.748184524     -6.449324070     -0.000000000
       H     0.8601947900    -0.0723593300     0.0000000000      7.583512720     -0.197432482     -0.000000000
       H    -0.2846912100     0.8213446800     0.0000000000     -1.835328145      6.646756501     -0.000000000
