       3
Lattice="15.0 0.0 0.0 0.0 15.0 0.0 0.0 0.0 15.0" Properties=species:S:1:pos:R:3:forces:R:3 energy=        0.9728254253 pbc="T T T"
       O     0.0067954400     0.0168023000     0.0000000000      2.049156303    -13.151080247     -0.000000000
       H     0.9148754600    -0.1025577400     0.0000000000      2.146287073      0.541601800     -0.000000000
       H    -0.3014132900     0.7648406700     0.0000000000     -4.195443376     12.609478448     -0.000000000
