       3
Lattice="15.0 0.0 0.0 0.0 15.0 0.0 0.0 0.0 15.0" Properties=species:S:1:pos:R:3:forces:R:3 energy=        4.2856233789 pbc="T T T"
       O     0.0006763200     0.0219062100     0.0000000000     15.487601122    -41.014380506     -0.000000000
       H     0.9551130200    -0.0744734600     0.0000000000     -0.610376888      0.571952915     -0.000000000
       H    -0.2445353000     0.6557535000     0.0000000000    -14.877224234     40.442427642     -0.000000000
