       3
Lattice="15.0 0.0 0.0 0.0 15.0 0.0 0.0 0.0 15.0" Properties=species:S:1:pos:R:3:forces:R:3 energy=        1.1372938941 pbc="T T T"
       O     0.0244908500     0.0167896000     0.0000000000     -9.059515711      3.189667813     -0.000000000
       H     0.8563657400    -0.2751616400     0.0000000000      5.138514073      0.262145945     -0.000000000
       H    -0.5237469000     0.9376468500     0.0000000000      3.921001638     -3.451813759     -0.000000000
