       3
Lattice="15.0 0.0 0.0 0.0 15.0 0.0 0.0 0.0 15.0" Properties=species:S:1:pos:R:3:forces:R:3 energy=        6.5074404501 pbc="T T T"
       O    -0.0157257000     0.0139497200     0.0000000000     13.952981322    -55.657611256     -0.000000000
       H     1.0795410500     0.0561143500     0.0000000000     -4.406716267     -0.925470151     -0.000000000
       H    -0.1086479900     0.6514407800     0.0000000000     -9.546265055     56.583081407     -0.000000000
