       3
Lattice="15.0 0.0 0.0 0.0 15.0 0.0 0.0 0.0 15.0" Properties=species:S:1:pos:R:3:forces:R:3 energy=        1.3380573285 pbc="T T T"
       O    -0.0231418700    -0.0061624500     0.0000000000      6.157085045      0.395202397     -0.000000000
       H     1.2459883900     0.0816340400     0.0000000000     -5.846256215     -0.614246245     -0.000000000
       H    -0.1573943500     0.9451166500     0.0000000000     -0.310828778      0.219043900     -0.000000000
