       3
Lattice="15.0 0.0 0.0 0.0 15.0 0.0 0.0 0.0 15.0" Properties=species:S:1:pos:R:3:forces:R:3 energy=        2.4430777705 pbc="T T T"
       O    -0.0088842000     0.0201813000     0.0000000000     11.948839092    -18.772620295     -0.000000000
       H     1.1833794700    -0.1284687800     0.0000000000     -6.188874385      1.762080518     -0.000000000
       H    -0.3210707400     0.7371255600     0.0000000000     -5.759964707     17.010539776     -0.000000000
