       3
Lattice="15.0 0.0 0.0 0.0 15.0 0.0 0.0 0.0 15.0" Properties=species:S:1:pos:R:3:forces:R:3 energy=        1.8504985278 pbc="T T T"
       O     0.0147106800    -0.0035105200     0.0000000000     -2.431544778      3.446817331     -0.000000000
       H     0.9882100400    -0.1930457600     0.0000000000     -1.220809568      1.860986790     -0.000000000
       H    -0.5003704400     1.1777091200     0.0000000000      3.652354346     -5.307804121     -0.000000000
