       3
Lattice="15.0 0.0 0.0 0.0 15.0 0.0 0.0 0.0 15.0" Properties=species:S:1:pos:R:3:forces:R:3 energy=        1.0619775641 pbc="T T T"
       O     0.0086931600     0.0221024100     0.0000000000      2.805548831     -3.298237683     -0.000000000
       H     1.0760003300    -0.2677630100     0.0000000000     -4.788099749      2.980102392     -0.000000000
       H    -0.4926606300     0.8459308100     0.0000000000      1.982550918      0.318135291     -0.000000000
