       3
Lattice="15.0 0.0 0.0 0.0 15.0 0.0 0.0 0.0 15.0" Properties=species:S:1:pos:R:3:forces:R:3 energy=        0.3570900633 pbc="T T T"
       O    -0.0120332900    -0.0071459600     0.0000000000      3.822079785     -1.290785105     -0.000000000
       H     1.0036408900     0.1360194900     0.0000000000     -1.985363964     -1.698349166     -0.000000000
       H    -0.0913466600     0.9063389400     0.0000000000     -1.836715821      2.989134270     -0.000000000
