       3
Lattice="15.0 0.0 0.0 0.0 15.0 0.0 0.0 0.0 15.0" Properties=species:S:1:pos:R:3:forces:R:3 energy=        1.4369672880 pbc="T T T"
       O    -0.0261333400    -0.0096561300     0.0000000000      6.369827014     -4.129090576     -0.000000000
       H     1.1349600400     0.2157256000     0.0000000000     -4.295419998     -2.555958102     -0.000000000
       H     0.0011143800     0.8664711200     0.0000000000     -2.074407016      6.685048678     -0.000000000
