       3
Lattice="15.0 0.0 0.0 0.0 15.0 0.0 0.0 0.0 15.0" Properties=species:S:1:pos:R:3:forces:R:3 energy=        0.0628276154 pbc="T T T"
       O     0.0024140200     0.0004485700     0.0000000000     -0.557296849      1.402765134     -0.000000000
       H     0.9671687600    -0.0376377500     0.0000000000     -0.414825939      0.436392774     -0.000000000
       H    -0.2841682700     0.9594662300     0.0000000000      0.972122789     -1.839157908     -0.000000000
