       3
Lattice="15.0 0.0 0.0 0.0 15.0 0.0 0.0 0.0 15.0" Properties=species:S:1:pos:R:3:forces:R:3 energy=        0.3293755252 pbc="T T T"
       O    -0.0055898100    -0.0137416900     0.0000000000     -0.955576241      3.365170729     -0.000000000
       H     0.9153511900     0.1459521200     0.0000000000      2.257518036     -1.270087149     -0.000000000
       H    -0.1053193100     1.0010850500     0.0000000000     -1.301941795     -2.095083632     -0.000000000
