       3
Lattice="15.0 0.0 0.0 0.0 15.0 0.0 0.0 0.0 15.0" Properties=species:S:1:pos:R:3:forces:R:3 energy=        0.6179719094 pbc="T T T"
       O    -0.0037563300    -0.0184437400     0.0000000000     -0.768209838      5.593369691     -0.000000000
       H     0.9388489400     0.1199259000     0.0000000000      0.911404976     -0.817464844     -0.000000000
       H    -0.1579162400     1.1017365000     0.0000000000     -0.143195138     -4.775904898     -0.000000000
