       3
Lattice="15.0 0.0 0.0 0.0 15.0 0.0 0.0 0.0 15.0" Properties=species:S:1:pos:R:3:forces:R:3 energy=        2.4749071001 pbc="T T T"
       O    -0.0067548100     0.0252528100     0.0000000000      7.784803453     -9.572102032     -0.000000000
       H     1.2760008000    -0.2426141900     0.0000000000     -6.148799969      2.695768382     -0.000000000
       H    -0.4474900100     0.7707835300     0.0000000000     -1.636003484      6.876333650     -0.000000000
