       3
Lattice="15.0 0.0 0.0 0.0 15.0 0.0 0.0 0.0 15.0" Properties=species:S:1:pos:R:3:forces:R:3 energy=        1.0410545743 pbc="T T T"
       O    -0.0102112700     0.0039407800     0.0000000000      4.848846666     -0.414034862     -0.000000000
       H     1.1940465900    -0.0692235900     0.0000000000     -5.942504736      1.048786025     -0.000000000
       H    -0.3106744500     0.9356291800     0.0000000000      1.093658070     -0.634751111     -0.000000000
