       3
Lattice="15.0 0.0 0.0 0.0 15.0 0.0 0.0 0.0 15.0" Properties=species:S:1:pos:R:3:forces:R:3 energy=        1.6926319985 pbc="T T T"
       O     0.0090882300    -0.0193096200     0.0000000000     -9.788438713      5.371720130     -0.000000000
       H     0.8620067300     0.0240278100     0.0000000000      8.310808677      0.522514898     -0.000000000
       H    -0.2849289300     1.2113771400     0.0000000000      1.477630088     -5.894235028     -0.000000000
