       3
Lattice="15.0 0.0 0.0 0.0 15.0 0.0 0.0 0.0 15.0" Properties=species:S:1:pos:R:3:forces:R:3 energy=        1.7381110600 pbc="T T T"
       O     0.0224957600     0.0115010900     0.0000000000    -20.955452890      4.906621696     -0.000000000
       H     0.7758451300    -0.1713839800     0.0000000000     18.536955644     -2.802746944     -0.000000000
       H    -0.4115599900     0.9178009400     0.0000000000      2.418497246     -2.103874700     -0.000000000
