       3
Lattice="15.0 0.0 0.0 0.0 15.0 0.0 0.0 0.0 15.0" Properties=species:S:1:pos:R:3:forces:R:3 energy=        3.2786873955 pbc="T T T"
       O     0.0248718500     0.0002589400     0.0000000000    -30.583023157      8.909870494     -0.000000000
       H     0.7456285100    -0.1417792400     0.0000000000     27.238672768     -3.655907613     -0.000000000
       H    -0.4190527800     1.0666170800     0.0000000000      3.344350389     -5.253962882     -0.000000000
