       3
Lattice="15.0 0.0 0.0 0.0 15.0 0.0 0.0 0.0 15.0" Properties=species:S:1:pos:R:3:forces:R:3 energy=        0.9690110639 pbc="T T T"
       O     0.0056095200    -0.0140861100     0.0000000000     -4.435090101      5.305387952     -0.000000000
       H     0.9210538700     0.0045887500     0.0000000000      2.823087465      0.300944528     -0.000000000
       H    -0.2887669900     1.1479155900     0.0000000000      1.612002636     -5.606332428     -0.000000000
