       3
Lattice="15.0 0.0 0.0 0.0 15.0 0.0 0.0 0.0 15.0" Properties=species:S:1:pos:R:3:forces:R:3 energy=        1.5208231359 pbc="T T T"
       O    -0.0247118000    -0.0127701700     0.0000000000      5.844532752      3.593025907     -0.000000000
       H     1.2519675200     0.1171598200     0.0000000000     -5.719385173     -0.920843192     -0.000000000
       H    -0.1384564300     1.0144601400     0.0000000000     -0.125147580     -2.672182664     -0.000000000
