       3
Lattice="15.0 0.0 0.0 0.0 15.0 0.0 0.0 0.0 15.0" Properties=species:S:1:pos:R:3:forces:R:3 energy=        0.3533749553 pbc="T T T"
       O     0.0122180500     0.0075024500     0.0000000000     -4.911749455      1.641521640     -0.000000000
       H     0.9139011100    -0.1393257000     0.0000000000      2.622584569      0.858301386     -0.000000000
       H    -0.3865004900     0.9492043100     0.0000000000      2.289164885     -2.499823026     -0.000000000
