       3
Lattice="15.0 0.0 0.0 0.0 15.0 0.0 0.0 0.0 15.0" Properties=species:S:1:pos:R:3:forces:R:3 energy=        1.9967733061 pbc="T T T"
       O     0.0273371200     0.0087975900     0.0000000000    -10.581898441      4.893861819     -0.000000000
       H     0.8528751300    -0.2823457900     0.0000000000      6.010374281      0.146762186     -0.000000000
       H    -0.5654286800     1.0716702300     0.0000000000      4.571524160     -5.040624005     -0.000000000
