       3
Lattice="15.0 0.0 0.0 0.0 15.0 0.0 0.0 0.0 15.0" Properties=species:S:1:pos:R:3:forces:R:3 energy=        1.7099779945 pbc="T T T"
       O    -0.0077066800    -0.0344864100     0.0000000000     -2.043294236      6.014512679     -0.000000000
       H     0.8568251700     0.2828535500     0.0000000000      4.011722850     -1.352796954     -0.000000000
       H    -0.0131931400     1.1934167400     0.0000000000     -1.968428613     -4.661715725     -0.000000000
