       3
Lattice="15.0 0.0 0.0 0.0 15.0 0.0 0.0 0.0 15.0" Properties=species:S:1:pos:R:3:forces:R:3 energy=        2.8930529665 pbc="T T T"
       O    -0.0043550500     0.0224739500     0.0000000000     14.893686707    -26.660584992     -0.000000000
       H     1.0958180600    -0.1235166300     0.0000000000     -5.318833028      1.680976265     -0.000000000
       H    -0.3053901700     0.6957870200     0.0000000000     -9.574853679     24.979608727     -0.000000000
