       3
Lattice="15.0 0.0 0.0 0.0 15.0 0.0 0.0 0.0 15.0" Properties=species:S:1:pos:R:3:forces:R:3 energy=        1.2954568615 pbc="T T T"
       O     0.0049350700    -0.0187261900     0.0000000000     -3.680571651      5.558677985     -0.000000000
       H     0.9306275500     0.0200872900     0.0000000000      2.143082140      0.279056716     -0.000000000
       H    -0.2876361700     1.2060584200     0.0000000000      1.537489512     -5.837734701     -0.000000000
