       3
Lattice="15.0 0.0 0.0 0.0 15.0 0.0 0.0 0.0 15.0" Properties=species:S:1:pos:R:3:forces:R:3 energy=        3.6228839748 pbc="T T T"
       O     0.0048851900    -0.0168064900     0.0000000000    -28.579101064     -4.254246692     -0.000000000
       H     0.6931662200     0.1990473400     0.0000000000     31.644147603      5.326458306     -0.000000000
       H    -0.0493786700     0.9966293200     0.0000000000     -3.065046487     -1.072211614     -0.000000000
