       3
Lattice="15.0 0.0 0.0 0.0 15.0 0.0 0.0 0.0 15.0" Properties=species:S:1:pos:R:3:forces:R:3 energy=        0.4236871931 pbc="T T T"
       O    -0.0033586800    -0.0152196200     0.0000000000     -2.076981463      4.417457776     -0.000000000
       H     0.9091029100     0.1279646500     0.0000000000      2.786569401     -0.891926084     -0.000000000
       H    -0.1344810100     1.0425284700     0.0000000000     -0.709587938     -3.525531692     -0.000000000
