       3
Lattice="15.0 0.0 0.0 0.0 15.0 0.0 0.0 0.0 15.0" Properties=species:S:1:pos:R:3:forces:R:3 energy=        0.7606486458 pbc="T T T"
       O     0.0098526600     0.0039012300     0.0000000000    -12.182842243     -0.767015817     -0.000000000
       H     0.8261323500    -0.0306726900     0.0000000000     12.423326223     -0.401515126     -0.000000000
       H    -0.2611883400     0.8977043400     0.0000000000     -0.240483980      1.168530943     -0.000000000
