       3
Lattice="15.0 0.0 0.0 0.0 15.0 0.0 0.0 0.0 15.0" Properties=species:S:1:pos:R:3:forces:R:3 energy=        1.2415290837 pbc="T T T"
       O    -0.0103999400    -0.0265414200     0.0000000000      2.891878802      6.865261498     -0.000000000
       H     1.0169863000     0.1666418200     0.0000000000     -2.650892789     -1.419499372     -0.000000000
       H    -0.1306134400     1.1835368200     0.0000000000     -0.240986014     -5.445762074     -0.000000000
