       3
Lattice="15.0 0.0 0.0 0.0 15.0 0.0 0.0 0.0 15.0" Properties=species:S:1:pos:R:3:forces:R:3 energy=        0.7799838322 pbc="T T T"
       O     0.0199451100     0.0181871300     0.0000000000     -4.502658518      0.915066331     -0.000000000
       H     0.9128486500    -0.2674038900     0.0000000000      1.103367691      1.566188179     -0.000000000
       H    -0.5080854800     0.9077094700     0.0000000000      3.399290827     -2.481254510     -0.000000000
