       3
Lattice="15.0 0.0 0.0 0.0 15.0 0.0 0.0 0.0 15.0" Properties=species:S:1:pos:R:3:forces:R:3 energy=        1.7227547525 pbc="T T T"
       O    -0.0043456400     0.0203563000     0.0000000000      9.595884079    -13.744306223     -0.000000000
       H     1.1441979600    -0.1545279200     0.0000000000     -5.849029665      2.039022758     -0.000000000
       H    -0.3539200300     0.7604074100     0.0000000000     -3.746854465     11.705283465     -0.000000000
