       3
Lattice="15.0 0.0 0.0 0.0 15.0 0.0 0.0 0.0 15.0" Properties=species:S:1:pos:R:3:forces:R:3 energy=        1.9006847673 pbc="T T T"
       O     0.0023650500    -0.0213012000     0.0000000000    -14.783076614      2.403796700     -0.000000000
       H     0.7728084900     0.1824241000     0.0000000000     16.381985798      1.565878566     -0.000000000
       H    -0.0890249700     1.0845873800     0.0000000000     -1.598909184     -3.969675317     -0.000000000
