       3
Lattice="15.0 0.0 0.0 0.0 15.0 0.0 0.0 0.0 15.0" Properties=species:S:1:pos:R:3:forces:R:3 energy=        2.7048165304 pbc="T T T"
       O    -0.0124902800     0.0172823600     0.0000000000     12.312465807    -21.317477345     -0.000000000
       H     1.1930505100    -0.0824027400     0.0000000000     -6.213751105      1.223218693     -0.000000000
       H    -0.2735094400     0.7370676000     0.0000000000     -6.098714753     20.094258652     -0.000000000
