       3
Lattice="15.0 0.0 0.0 0.0 15.0 0.0 0.0 0.0 15.0" Properties=species:S:1:pos:R:3:forces:R:3 energy=        1.1519648394 pbc="T T T"
       O    -0.0127772500    -0.0070019800     0.0000000000      1.729555328     -7.517893869     -0.000000000
       H     0.9289117500     0.2027633500     0.0000000000      1.619213247     -2.728500443     -0.000000000
       H    -0.0048085700     0.8373093900     0.0000000000     -3.348768626     10.246394312     -0.000000000
