       3
Lattice="15.0 0.0 0.0 0.0 15.0 0.0 0.0 0.0 15.0" Properties=species:S:1:pos:R:3:forces:R:3 energy=        0.8829219639 pbc="T T T"
       O     0.0111023000     0.0253963300     0.0000000000      3.690304721     -6.287080699     -0.000000000
       H     1.0165505400    -0.2616680600     0.0000000000     -3.643857823      2.718043813     -0.000000000
       H    -0.4714454300     0.7875587400     0.0000000000     -0.046446898      3.569036835     -0.000000000
