       3
Lattice="15.0 0.0 0.0 0.0 15.0 0.0 0.0 0.0 15.0" Properties=species:S:1:pos:R:3:forces:R:3 energy=        0.9107523028 pbc="T T T"
       O     0.0131842300    -0.0026330900     0.0000000000     -9.053577591      4.544746211     -0.000000000
       H     0.8781296000    -0.0915185700     0.0000000000      6.469562004      0.364141862     -0.000000000
       H    -0.3660615700     1.0622552800     0.0000000000      2.584015587     -4.908888124     -0.000000000
