       3
Lattice="15.0 0.0 0.0 0.0 15.0 0.0 0.0 0.0 15.0" Properties=species:S:1:pos:R:3:forces:R:3 energy=        0.5425989199 pbc="T T T"
       O    -0.0152851800    -0.0134636800     0.0000000000      4.742904773      3.491561695     -0.000000000
       H     1.0654414000     0.1480133100     0.0000000000     -3.770617383     -1.619704893     -0.000000000
       H    -0.1015368200     0.9946121900     0.0000000000     -0.972287391     -1.871856802     -0.000000000
