       3
Lattice="15.0 0.0 0.0 0.0 15.0 0.0 0.0 0.0 15.0" Properties=species:S:1:pos:R:3:forces:R:3 energy=        5.7640262199 pbc="T T T"
       O     0.0317996300     0.0072642900     0.0000000000    -50.422004928     16.784672525     -0.000000000
       H     0.6676686300    -0.1886932000     0.0000000000     46.699450382    -12.113218537     -0.000000000
       H    -0.4510430900     1.0023509800     0.0000000000      3.722554546     -4.671453989     -0.000000000
