       3
Lattice="15.0 0.0 0.0 0.0 15.0 0.0 0.0 0.0 15.0" Properties=species:S:1:pos:R:3:forces:R:3 energy=        0.8575516730 pbc="T T T"
       O     0.0003021800     0.0171601700     0.0000000000      6.213272520     -8.638610909     -0.000000000
       H     1.0734341700    -0.1467869400     0.0000000000     -4.699237754      1.863839584     -0.000000000
       H    -0.3569202600     0.8033910700     0.0000000000     -1.514034766      6.774771325     -0.000000000
