       3
Lattice="15.0 0.0 0.0 0.0 15.0 0.0 0.0 0.0 15.0" Properties=species:S:1:pos:R:3:forces:R:3 energy=        0.7235010739 pbc="T T T"
       O     0.0008794400     0.0111166100     0.0000000000      3.267627812    -11.849381422     -0.000000000
       H     0.9518117500    -0.0404153100     0.0000000000      0.083532867      0.236384662     -0.000000000
       H    -0.2444565900     0.7929341100     0.0000000000     -3.351160730     11.612996759     -0.000000000
