       3
Lattice="15.0 0.0 0.0 0.0 15.0 0.0 0.0 0.0 15.0" Properties=species:S:1:pos:R:3:forces:R:3 energy=        3.9624116354 pbc="T T T"
       O     0.0161751900    -0.0024354400     0.0000000000    -40.723875588      1.956211703     -0.000000000
       H     0.7042460800     0.0060226900     0.0000000000     40.564693425     -0.004112944     -0.000000000
       H    -0.2396442800     0.9615760000     0.0000000000      0.159182163     -1.952098758     -0.000000000
