       3
Lattice="15.0 0.0 0.0 0.0 15.0 0.0 0.0 0.0 15.0" Properties=species:S:1:pos:R:3:forces:R:3 energy=        0.7919478650 pbc="T T T"
       O     0.0041851600     0.0150260900     0.0000000000      2.860954433     -2.046567047     -0.000000000
       H     1.0858510400    -0.1975583200     0.0000000000     -4.794222885      2.371742073     -0.000000000
       H    -0.4309641100     0.8880321700     0.0000000000      1.933268453     -0.325175027     -0.000000000
