       3
Lattice="15.0 0.0 0.0 0.0 15.0 0.0 0.0 0.0 15.0" Properties=species:S:1:pos:R:3:forces:R:3 energy=        0.5155558118 pbc="T T T"
       O     0.0154259500     0.0128467000     0.0000000000     -7.959987141     -0.083961110     -0.000000000
       H     0.8633938100    -0.1564793300     0.0000000000      6.583467224      0.091819845     -0.000000000
       H    -0.3869053500     0.8815406200     0.0000000000      1.376519917     -0.007858786     -0.000000000
