       3
Lattice="15.0 0.0 0.0 0.0 15.0 0.0 0.0 0.0 15.0" Properties=species:S:1:pos:R:3:forces:R:3 energy=        5.0087478173 pbc="T T T"
       O     0.0049104400     0.0336837100     0.0000000000     26.250648624    -40.604002423     -0.000000000
       H     1.0078184500    -0.2046923800     0.0000000000     -3.747703495      2.308630614     -0.000000000
       H    -0.3644427600     0.5990557900     0.0000000000    -22.502945129     38.295371809     -0.000000000
