       3
Lattice="15.0 0.0 0.0 0.0 15.0 0.0 0.0 0.0 15.0" Properties=species:S:1:pos:R:3:forces:R:3 energy=        0.9193445673 pbc="T T T"
       O     0.0033615400     0.0031929100     0.0000000000     -7.238347974     -7.207153434     -0.000000000
       H     0.8420474100     0.0391972800     0.0000000000      9.883551115     -0.567210102     -0.000000000
       H    -0.1740828500     0.8390755300     0.0000000000     -2.645203140      7.774363587     -0.000000000
