       3
Lattice="15.0 0.0 0.0 0.0 15.0 0.0 0.0 0.0 15.0" Properties=species:S:1:pos:R:3:forces:R:3 energy=        0.7953682573 pbc="T T T"
       O    -0.0071856700     0.0094813600     0.0000000000      6.501795939     -7.308774174     -0.000000000
       H     1.1088787700    -0.0578346300     0.0000000000     -5.173616127      0.865672177     -0.000000000
       H    -0.2735250100     0.8363066800     0.0000000000     -1.328179812      6.443101997     -0.000000000
