       3
Lattice="15.0 0.0 0.0 0.0 15.0 0.0 0.0 0.0 15.0" Properties=species:S:1:pos:R:3:forces:R:3 energy=        1.5910845156 pbc="T T T"
       O    -0.0024219700    -0.0172248200     0.0000000000      2.186931862      5.300923332     -0.000000000
       H     1.0771733100    -0.0077716200     0.0000000000     -4.058016561      0.421816309     -0.000000000
       H    -0.3174211400     1.2100902000     0.0000000000      1.871084699     -5.722739641     -0.000000000
