       3
Lattice="15.0 0.0 0.0 0.0 15.0 0.0 0.0 0.0 15.0" Properties=species:S:1:pos:R:3:forces:R:3 energy=        1.1454427001 pbc="T T T"
       O     0.0174990300     0.0090407500     0.0000000000    -16.310926027      2.362338156     -0.000000000
       H     0.8052382400    -0.1248763600     0.0000000000     14.774104385     -1.276083530     -0.000000000
       H    -0.3616502600     0.9103405100     0.0000000000      1.536821642     -1.086254626     -0.000000000
