       3
Lattice="15.0 0.0 0.0 0.0 15.0 0.0 0.0 0.0 15.0" Properties=species:S:1:pos:R:3:forces:R:3 energy=        2.4583212134 pbc="T T T"
       O     0.0243660500    -0.0026122000     0.0000000000     -8.689006766      4.423563480     -0.000000000
       H     0.8867436200    -0.2360779400     0.0000000000      4.718235593      0.798725401     -0.000000000
       H    -0.5521427500     1.2064841000     0.0000000000      3.970771174     -5.222288881     -0.000000000
