       3
Lattice="15.0 0.0 0.0 0.0 15.0 0.0 0.0 0.0 15.0" Properties=species:S:1:pos:R:3:forces:R:3 energy=        1.6708054873 pbc="T T T"
       O     0.0118299500    -0.0102500000     0.0000000000    -17.793636771      4.706070207     -0.000000000
       H     0.8031518400     0.0073943100     0.0000000000     16.506054080      0.350594713     -0.000000000
       H    -0.2695877700     1.0842276400     0.0000000000      1.287582691     -5.056664971     -0.000000000
