       3
Lattice="15.0 0.0 0.0 0.0 15.0 0.0 0.0 0.0 15.0" Properties=species:S:1:pos:R:3:forces:R:3 energy=        0.5797397271 pbc="T T T"
       O    -0.0035519200     0.0015169100     0.0000000000      3.202384238      1.410079668     -0.000000000
       H     1.0999124900    -0.0705584900     0.0000000000     -4.823221189      1.038457539     -0.000000000
       H    -0.3222291100     0.9754324500     0.0000000000      1.620836951     -2.448537207     -0.000000000
