       3
Lattice="15.0 0.0 0.0 0.0 15.0 0.0 0.0 0.0 15.0" Properties=species:S:1:pos:R:3:forces:R:3 energy=        1.4768644126 pbc="T T T"
       O     0.0018161400    -0.0233950100     0.0000000000     -9.482624514      4.619567817     -0.000000000
       H     0.8246048200     0.1555653700     0.0000000000     10.113660123      0.474715034     -0.000000000
       H    -0.1321103500     1.1446767900     0.0000000000     -0.631035608     -5.094282850     -0.000000000
