       3
Lattice="15.0 0.0 0.0 0.0 15.0 0.0 0.0 0.0 15.0" Properties=species:S:1:pos:R:3:forces:R:3 energy=        0.5272560166 pbc="T T T"
       O    -0.0131863500    -0.0175833800     0.0000000000      3.021166580      4.184291056     -0.000000000
       H     0.9800784600     0.2014147800     0.0000000000     -1.214628839     -2.202965989     -0.000000000
       H    -0.0494823900     1.0065927400     0.0000000000     -1.806537741     -1.981325067     -0.000000000
