       3
Lattice="15.0 0.0 0.0 0.0 15.0 0.0 0.0 0.0 15.0" Properties=species:S:1:pos:R:3:forces:R:3 energy=        3.4773580431 pbc="T T T"
       O     0.0133944200    -0.0140632200     0.0000000000    -32.588874657      2.640942460     -0.000000000
       H     0.7269404700     0.0593091600     0.0000000000     32.146559807      2.366438450     -0.000000000
       H    -0.2182041900     1.0928308100     0.0000000000      0.442314850     -5.007380911     -0.000000000
