       3
Lattice="15.0 0.0 0.0 0.0 15.0 0.0 0.0 0.0 15.0" Properties=species:S:1:pos:R:3:forces:R:3 energy=        1.1329903807 pbc="T T T"
       O    -0.0112370000    -0.0191403600     0.0000000000     -1.350128816      1.477347318     -0.000000000
       H     0.8590966400     0.2762421400     0.0000000000      5.106718048     -2.541159648     -0.000000000
       H     0.0405636700     0.9564748700     0.0000000000     -3.756589232      1.063812330     -0.000000000
