       3
Lattice="15.0 0.0 0.0 0.0 15.0 0.0 0.0 0.0 15.0" Properties=species:S:1:pos:R:3:forces:R:3 energy=        0.3037579128 pbc="T T T"
       O     0.0077360300     0.0016343800     0.0000000000     -7.354725363      0.944791075     -0.000000000
       H     0.8721872500    -0.0332072900     0.0000000000      6.820076241     -0.003317702     -0.000000000
       H    -0.2736508600     0.9362157500     0.0000000000      0.534649122     -0.941473373     -0.000000000
