       3
Lattice="15.0 0.0 0.0 0.0 15.0 0.0 0.0 0.0 15.0" Properties=species:S:1:pos:R:3:forces:R:3 energy=        1.8637070435 pbc="T T T"
       O    -0.0103912800    -0.0316911500     0.0000000000      3.329944285      6.938443510     -0.000000000
       H     1.0475565500     0.1590233900     0.0000000000     -3.502806472     -1.232335058     -0.000000000
       H    -0.1613211200     1.2728854700     0.0000000000      0.172862186     -5.706108452     -0.000000000
