       3
Lattice="15.0 0.0 0.0 0.0 15.0 0.0 0.0 0.0 15.0" Properties=species:S:1:pos:R:3:forces:R:3 energy=        0.2080412911 pbc="T T T"
       O     0.0088270100     0.0092393200     0.0000000000     -3.837793758     -2.065004950     -0.000000000
       H     0.9021114600    -0.0938523800     0.0000000000      3.593656959      0.426852949     -0.000000000
       H    -0.3208913500     0.8761652600     0.0000000000      0.244136799      1.638151950     -0.000000000
