       3
Lattice="15.0 0.0 0.0 0.0 15.0 0.0 0.0 0.0 15.0" Properties=species:S:1:pos:R:3:forces:R:3 energy=        2.3297080179 pbc="T T T"
       O     0.0080251400     0.0063175300     0.0000000000      0.984533304      1.792394044     -0.000000000
       H     1.1447466900    -0.2631755200     0.0000000000     -5.102343211      2.856573322     -0.000000000
       H    -0.5508045800     1.0918614600     0.0000000000      4.117809856     -4.648967315     -0.000000000
