       3
Lattice="15.0 0.0 0.0 0.0 15.0 0.0 0.0 0.0 15.0" Properties=species:S:1:pos:R:3:forces:R:3 energy=        0.5381730125 pbc="T T T"
       O     0.0129055200     0.0071711500     0.0000000000     -9.952987542      0.872504681     -0.000000000
       H     0.8510795200    -0.0979716800     0.0000000000      8.816195803     -0.168924643     -0.000000000
       H    -0.3345884400     0.9131078200     0.0000000000      1.136791739     -0.703579987     -0.000000000
