       3
Lattice="15.0 0.0 0.0 0.0 15.0 0.0 0.0 0.0 15.0" Properties=species:S:1:pos:R:3:forces:R:3 energy=        1.1501603952 pbc="T T T"
       O    -0.0208894000    -0.0028454900     0.0000000000      6.677940860     -3.099496355     -0.000000000
       H     1.1957500400     0.0824342000     0.0000000000     -5.659087067     -0.758825101     -0.000000000
       H    -0.1429043400     0.8916736400     0.0000000000     -1.018853793      3.858321455     -0.000000000
