       3
Lattice="15.0 0.0 0.0 0.0 15.0 0.0 0.0 0.0 15.0" Properties=species:S:1:pos:R:3:forces:R:3 energy=        0.9901983633 pbc="T T T"
       O     0.0179966600     0.0052153400     0.0000000000     -9.273723878      4.034867829     -0.000000000
       H     0.8745958700    -0.1728131500     0.0000000000      5.891412727      0.408462765     -0.000000000
       H    -0.4389067800     1.0189899700     0.0000000000      3.382311100     -4.443330593     -0.000000000
