       3
Lattice="15.0 0.0 0.0 0.0 15.0 0.0 0.0 0.0 15.0" Properties=species:S:1:pos:R:3:forces:R:3 energy=        3.7909437969 pbc="T T T"
       O     0.0328757400     0.0173135600     0.0000000000    -34.753677229     13.454819462     -0.000000000
       H     0.6913109700    -0.2519791100     0.0000000000     31.292703551    -10.489277697     -0.000000000
       H    -0.4917658800     0.9061479300     0.0000000000      3.460973678     -2.965541817     -0.000000000
