       3
Lattice="15.0 0.0 0.0 0.0 15.0 0.0 0.0 0.0 15.0" Properties=species:S:1:pos:R:3:forces:R:3 energy=        4.5493628369 pbc="T T T"
       O     0.0083867300    -0.0200536500     0.0000000000    -36.107615702     -4.174276707     -0.000000000
       H     0.6749140400     0.1802993300     0.0000000000     38.158552804      7.632216174     -0.000000000
       H    -0.0866989600     1.0669122600     0.0000000000     -2.050937101     -3.457939466     -0.000000000
