       3
Lattice="15.0 0.0 0.0 0.0 15.0 0.0 0.0 0.0 15.0" Properties=species:S:1:pos:R:3:forces:R:3 energy=        1.0218940252 pbc="T T T"
       O    -0.0102196700     0.0025301700     0.0000000000      4.682857659      0.288577464     -0.000000000
       H     1.1904000000    -0.0618435600     0.0000000000     -5.899468254      0.966832947     -0.000000000
       H    -0.3068943000     0.9506365700     0.0000000000      1.216610595     -1.255410411     -0.000000000
