       3
Lattice="15.0 0.0 0.0 0.0 15.0 0.0 0.0 0.0 15.0" Properties=species:S:1:pos:R:3:forces:R:3 energy=        0.8358522825 pbc="T T T"
       O    -0.0087169300    -0.0088667300     0.0000000000      3.735757990      4.116693997     -0.000000000
       H     1.1158137200     0.0134661100     0.0000000000     -4.942107101      0.113593140     -0.000000000
       H    -0.2561555100     1.0562035100     0.0000000000      1.206349112     -4.230287188     -0.000000000
