       3
Lattice="15.0 0.0 0.0 0.0 15.0 0.0 0.0 0.0 15.0" Properties=species:S:1:pos:R:3:forces:R:3 energy=        2.0811235985 pbc="T T T"
       O    -0.0100715700    -0.0366381100     0.0000000000      2.880643230      7.034829122     -0.000000000
       H     1.0152349800     0.1957694900     0.0000000000     -2.751149867     -1.467576967     -0.000000000
       H    -0.1340726200     1.3146509900     0.0000000000     -0.129493415     -5.567252155     -0.000000000
