       3
Lattice="15.0 0.0 0.0 0.0 15.0 0.0 0.0 0.0 15.0" Properties=species:S:1:pos:R:3:forces:R:3 energy=        2.5664395114 pbc="T T T"
       O    -0.0063805400     0.0220162200     0.0000000000     13.160090837    -21.317770296     -0.000000000
       H     1.1494031600    -0.1387221900     0.0000000000     -5.973994440      1.888761762     -0.000000000
       H    -0.3268295500     0.7182574800     0.0000000000     -7.186096449     19.429008483     -0.000000000
