       3
Lattice="15.0 0.0 0.0 0.0 15.0 0.0 0.0 0.0 15.0" Properties=species:S:1:pos:R:3:forces:R:3 energy=        2.1650937125 pbc="T T T"
       O     0.0188503600    -0.0048269800     0.0000000000     -4.582337248      3.669449825     -0.000000000
       H     0.9469238500    -0.2078552300     0.0000000000      0.874229018      1.593405478     -0.000000000
       H    -0.5247842100     1.2134116400     0.0000000000      3.708108230     -5.262855303     -0.000000000
