       3
Lattice="15.0 0.0 0.0 0.0 15.0 0.0 0.0 0.0 15.0" Properties=species:S:1:pos:R:3:forces:R:3 energy=        1.3649727744 pbc="T T T"
       O     0.0131109800     0.0161917700     0.0000000000      0.082571943      0.383848605     -0.000000000
       H     1.0538863300    -0.2864117500     0.0000000000     -4.090759627      3.011390418     -0.000000000
       H    -0.5406609200     0.9583858200     0.0000000000      4.008187684     -3.395239024     -0.000000000
