       3
Lattice="15.0 0.0 0.0 0.0 15.0 0.0 0.0 0.0 15.0" Properties=species:S:1:pos:R:3:forces:R:3 energy=        1.0423485165 pbc="T T T"
       O     0.0133198100     0.0036259700     0.0000000000    -15.948887174      1.794483632     -0.000000000
       H     0.8090910900    -0.0593015500     0.0000000000     15.104127692     -0.656949409     -0.000000000
       H    -0.2991740100     0.9307019400     0.0000000000      0.844759482     -1.137534223     -0.000000000
