       3
Lattice="15.0 0.0 0.0 0.0 15.0 0.0 0.0 0.0 15.0" Properties=species:S:1:pos:R:3:forces:R:3 energy=        4.6233308291 pbc="T T T"
       O    -0.0028663000     0.0244601800     0.0000000000     20.402433588    -41.721759248     -0.000000000
       H     1.0411847400    -0.1056984800     0.0000000000     -4.199622294      1.365871637     -0.000000000
       H    -0.2743839400     0.6464456300     0.0000000000    -16.202811293     40.355887611     -0.000000000
