       3
Lattice="15.0 0.0 0.0 0.0 15.0 0.0 0.0 0.0 15.0" Properties=species:S:1:pos:R:3:forces:R:3 energy=        1.4186027318 pbc="T T T"
       O     0.0014848200    -0.0252958900     0.0000000000     -5.935403860      5.602143070     -0.000000000
       H     0.8700066300     0.1303827200     0.0000000000      5.867430031      0.022462196     -0.000000000
       H    -0.1722543800     1.2000281800     0.0000000000      0.067973829     -5.624605266     -0.000000000
