       3
Lattice="15.0 0.0 0.0 0.0 15.0 0.0 0.0 0.0 15.0" Properties=species:S:1:pos:R:3:forces:R:3 energy=        0.8978270114 pbc="T T T"
       O    -0.0026636800    -0.0181638500     0.0000000000      0.605167419      5.824795104     -0.000000000
       H     0.9922483600     0.0641123100     0.0000000000     -1.504342371     -0.316948367     -0.000000000
       H    -0.2286581800     1.1531085800     0.0000000000      0.899175004     -5.507846789     -0.000000000
