       3
Lattice="15.0 0.0 0.0 0.0 15.0 0.0 0.0 0.0 15.0" Properties=species:S:1:pos:R:3:forces:R:3 energy=        0.9825168503 pbc="T T T"
       O     0.0073162900    -0.0121916700     0.0000000000     -9.653455014      4.849294090     -0.000000000
       H     0.8575236000     0.0269178500     0.0000000000      8.573957662      0.245099626     -0.000000000
       H    -0.2523239300     1.0955198800     0.0000000000      1.079497301     -5.094393768     -0.000000000
