       3
Lattice="15.0 0.0 0.0 0.0 15.0 0.0 0.0 0.0 15.0" Properties=species:S:1:pos:R:3:forces:R:3 energy=        1.4232103405 pbc="T T T"
       O    -0.0255644200    -0.0093674400     0.0000000000      6.303077853     -4.524976887     -0.000000000
       H     1.1251925500     0.2153892100     0.0000000000     -4.174407371     -2.597274361     -0.000000000
       H     0.0018526300     0.8622257000     0.0000000000     -2.128670534      7.122251248     -0.000000000
