       3
Lattice="15.0 0.0 0.0 0.0 15.0 0.0 0.0 0.0 15.0" Properties=species:S:1:pos:R:3:forces:R:3 energy=        1.8562879924 pbc="T T T"
       O    -0.0076025200    -0.0340117800     0.0000000000      1.924797538      6.852416363     -0.000000000
       H     0.9921305600     0.1750064700     0.0000000000     -1.923050215     -1.209065895     -0.000000000
       H    -0.1501544600     1.2937321900     0.0000000000     -0.001747374     -5.643350417     -0.000000000
