       3
Lattice="15.0 0.0 0.0 0.0 15.0 0.0 0.0 0.0 15.0" Properties=species:S:1:pos:R:3:forces:R:3 energy=        1.3806484838 pbc="T T T"
       O    -0.0096018600     0.0100508900     0.0000000000      5.206026646     -2.677226760     -0.000000000
       H     1.2283765900    -0.1226449000     0.0000000000     -6.133561240      1.614509257     -0.000000000
       H    -0.3546777900     0.8920790800     0.0000000000      0.927534645      1.062717502     -0.000000000
