       3
Lattice="15.0 0.0 0.0 0.0 15.0 0.0 0.0 0.0 15.0" Properties=species:S:1:pos:R:3:forces:R:3 energy=        1.2286674643 pbc="T T T"
       O    -0.0112121900    -0.0244646100     0.0000000000      3.469127113      6.696027654     -0.000000000
       H     1.0480515600     0.1459852000     0.0000000000     -3.473439472     -1.260071103     -0.000000000
       H    -0.1487881300     1.1712332000     0.0000000000      0.004312359     -5.435956551     -0.000000000
