       3
Lattice="15.0 0.0 0.0 0.0 15.0 0.0 0.0 0.0 15.0" Properties=species:S:1:pos:R:3:forces:R:3 energy=        4.1880273457 pbc="T T T"
       O    -0.0058913800     0.0119869300     0.0000000000      7.559880363    -40.022691253     -0.000000000
       H     0.9361642000     0.0524365600     0.0000000000      1.139538707     -1.133649747     -0.000000000
       H    -0.1213488600     0.6862690100     0.0000000000     -8.699419070     41.156341000     -0.000000000
