       3
Lattice="15.0 0.0 0.0 0.0 15.0 0.0 0.0 0.0 15.0" Properties=species:S:1:pos:R:3:forces:R:3 energy=        0.5699434186 pbc="T T T"
       O     0.0081445800     0.0026305500     0.0000000000     -1.338507167      2.686631705     -0.000000000
       H     0.9879365800    -0.1312632600     0.0000000000     -1.454440938      1.406555301     -0.000000000
       H    -0.3958867200     1.0184627700     0.0000000000      2.792948105     -4.093187006     -0.000000000
