       3
Lattice="15.0 0.0 0.0 0.0 15.0 0.0 0.0 0.0 15.0" Properties=species:S:1:pos:R:3:forces:R:3 energy=        1.9819073858 pbc="T T T"
       O    -0.0107282100     0.0173928200     0.0000000000      8.447367332    -10.624690668     -0.000000000
       H     1.2394201000    -0.1404735500     0.0000000000     -6.287235274      1.825822206     -0.000000000
       H    -0.3478458000     0.7933860100     0.0000000000     -2.160132058      8.798868462     -0.000000000
