       3
Lattice="15.0 0.0 0.0 0.0 15.0 0.0 0.0 0.0 15.0" Properties=species:S:1:pos:R:3:forces:R:3 energy=        1.0639309117 pbc="T T T"
       O     0.0130931600     0.0226669800     0.0000000000      0.597688230    -11.245403858     -0.000000000
       H     0.8880791100    -0.1778423000     0.0000000000      3.371454406      0.640105488     -0.000000000
       H    -0.3745683000     0.7470486600     0.0000000000     -3.969142687     10.605298371     -0.000000000
