       3
Lattice="15.0 0.0 0.0 0.0 15.0 0.0 0.0 0.0 15.0" Properties=species:S:1:pos:R:3:forces:R:3 energy=        0.7664251659 pbc="T T T"
       O    -0.0116157200    -0.0080766700     0.0000000000      4.424340725      3.473949836     -0.000000000
       H     1.1314382600     0.0345683700     0.0000000000     -5.164797290     -0.148159530     -0.000000000
       H    -0.2257737600     1.0225623000     0.0000000000      0.740456566     -3.325790306     -0.000000000
