       3
Lattice="15.0 0.0 0.0 0.0 15.0 0.0 0.0 0.0 15.0" Properties=species:S:1:pos:R:3:forces:R:3 energy=        3.4796250454 pbc="T T T"
       O     0.0255390600    -0.0005038500     0.0000000000    -31.346096956      9.275398695     -0.000000000
       H     0.7428513900    -0.1454418000     0.0000000000     27.912310033     -3.867063262     -0.000000000
       H    -0.4268647600     1.0823858300     0.0000000000      3.433786923     -5.408335433     -0.000000000
