       3
Lattice="15.0 0.0 0.0 0.0 15.0 0.0 0.0 0.0 15.0" Properties=species:S:1:pos:R:3:forces:R:3 energy=        0.8647755450 pbc="T T T"
       O    -0.0163747200    -0.0220301800     0.0000000000      4.341840053      5.894148999     -0.000000000
       H     1.0318550300     0.2145142200     0.0000000000     -2.919031978     -2.252033922     -0.000000000
       H    -0.0506569300     1.0640675000     0.0000000000     -1.422808075     -3.642115077     -0.000000000
