       3
Lattice="15.0 0.0 0.0 0.0 15.0 0.0 0.0 0.0 15.0" Properties=species:S:1:pos:R:3:forces:R:3 energy=        1.9090965306 pbc="T T T"
       O    -0.0310861800    -0.0254782300     0.0000000000      6.391842301      5.975557928     -0.000000000
       H     1.2041570300     0.2728863900     0.0000000000     -4.780923951     -2.452265771     -0.000000000
       H     0.0105241600     1.0604188300     0.0000000000     -1.610918298     -3.523292209     -0.000000000
