       3
Lattice="15.0 0.0 0.0 0.0 15.0 0.0 0.0 0.0 15.0" Properties=species:S:1:pos:R:3:forces:R:3 energy=        1.4022999469 pbc="T T T"
       O     0.0262916700     0.0175088400     0.0000000000    -14.323622576      4.569142495     -0.000000000
       H     0.8036924700    -0.2587192100     0.0000000000     10.873872540     -1.786664801     -0.000000000
       H    -0.4996535500     0.9097893700     0.0000000000      3.449750036     -2.782477694     -0.000000000
