       3
Lattice="15.0 0.0 0.0 0.0 15.0 0.0 0.0 0.0 15.0" Properties=species:S:1:pos:R:3:forces:R:3 energy=        1.7625620251 pbc="T T T"
       O    -0.0065150300    -0.0248782700     0.0000000000      2.887542326      6.166160118     -0.000000000
       H     1.0715503700     0.0711535000     0.0000000000     -3.967131158     -0.366846149     -0.000000000
       H    -0.2468362000     1.2526306500     0.0000000000      1.079588832     -5.799313968     -0.000000000
