       3
Lattice="15.0 0.0 0.0 0.0 15.0 0.0 0.0 0.0 15.0" Properties=species:S:1:pos:R:3:forces:R:3 energy=        1.1605866310 pbc="T T T"
       O     0.0098148600    -0.0083077800     0.0000000000    -14.252420108      4.222944319     -0.000000000
       H     0.8227747900     0.0108706900     0.0000000000     13.218081068      0.204037701     -0.000000000
       H    -0.2572296900     1.0499267600     0.0000000000      1.034339092     -4.426982020     -0.000000000
