       3
Lattice="15.0 0.0 0.0 0.0 15.0 0.0 0.0 0.0 15.0" Properties=species:S:1:pos:R:3:forces:R:3 energy=        2.2011943290 pbc="T T T"
       O    -0.0240183800    -0.0022081100     0.0000000000      6.576894196    -15.015809074     -0.000000000
       H     1.1217922200     0.1764173200     0.0000000000     -4.300714210     -2.310956023     -0.000000000
       H    -0.0192849700     0.7875740300     0.0000000000     -2.276179986     17.326765097     -0.000000000
