       3
Lattice="15.0 0.0 0.0 0.0 15.0 0.0 0.0 0.0 15.0" Properties=species:S:1:pos:R:3:forces:R:3 energy=        0.6238507525 pbc="T T T"
       O     0.0101838500    -0.0005336200     0.0000000000    -11.025908729      2.681109384     -0.000000000
       H     0.8464220200    -0.0365355200     0.0000000000      9.929091955     -0.074750849     -0.000000000
       H    -0.2867342900     0.9739516900     0.0000000000      1.096816723     -2.606358535     -0.000000000
