       3
Lattice="15.0 0.0 0.0 0.0 15.0 0.0 0.0 0.0 15.0" Properties=species:S:1:pos:R:3:forces:R:3 energy=        1.7190420908 pbc="T T T"
       O     0.0026019400     0.0269354400     0.0000000000      6.874245605     -8.479436306     -0.000000000
       H     1.1523458200    -0.2672077300     0.0000000000     -5.860552018      3.076998626     -0.000000000
       H    -0.4723341500     0.7686720500     0.0000000000     -1.013693587      5.402437680     -0.000000000
