       3
Lattice="15.0 0.0 0.0 0.0 15.0 0.0 0.0 0.0 15.0" Properties=species:S:1:pos:R:3:forces:R:3 energy=        1.8573024818 pbc="T T T"
       O     0.0250979700     0.0061521400     0.0000000000    -11.116336630      5.065448223     -0.000000000
       H     0.8539167300    -0.2472235900     0.0000000000      6.810014121      0.054867110     -0.000000000
       H    -0.5309324100     1.0785330700     0.0000000000      4.306322457     -5.120315333     -0.000000000
