       3
Lattice="15.0 0.0 0.0 0.0 15.0 0.0 0.0 0.0 15.0" Properties=species:S:1:pos:R:3:forces:R:3 energy=        2.1340107640 pbc="T T T"
       O     0.0046376100    -0.0270809900     0.0000000000    -12.985059667      4.123319270     -0.000000000
       H     0.8008884800     0.1508243800     0.0000000000     13.271330953      1.422124470     -0.000000000
       H    -0.1531728000     1.2079169800     0.0000000000     -0.286271235     -5.545443791     -0.000000000
