       3
Lattice="15.0 0.0 0.0 0.0 15.0 0.0 0.0 0.0 15.0" Properties=species:S:1:pos:R:3:forces:R:3 energy=        1.8872990294 pbc="T T T"
       O     0.0019649600     0.0238122800     0.0000000000     11.279777467    -19.485465513     -0.000000000
       H     1.0408810600    -0.1629614700     0.0000000000     -4.187484779      1.983355726     -0.000000000
       H    -0.3507572200     0.7139916800     0.0000000000     -7.092292688     17.502109736     -0.000000000
