       3
Lattice="15.0 0.0 0.0 0.0 15.0 0.0 0.0 0.0 15.0" Properties=species:S:1:pos:R:3:forces:R:3 energy=        1.2173109828 pbc="T T T"
       O     0.0178385400     0.0014559300     0.0000000000     -9.228209520      4.558318814     -0.000000000
       H     0.8795589900    -0.1628725900     0.0000000000      5.764696208      0.496612564     -0.000000000
       H    -0.4413600900     1.0687140900     0.0000000000      3.463513261     -5.054931429     -0.000000000
