       3
Lattice="15.0 0.0 0.0 0.0 15.0 0.0 0.0 0.0 15.0" Properties=species:S:1:pos:R:3:forces:R:3 energy=        1.3391207114 pbc="T T T"
       O     0.0231179300     0.0275131900     0.0000000000     -7.189249085     -4.239808039     -0.000000000
       H     0.8106651800    -0.2565441300     0.0000000000      8.967814239     -1.419060330     -0.000000000
       H    -0.4562568800     0.7488377600     0.0000000000     -1.778565154      5.658868369     -0.000000000
