       3
Lattice="15.0 0.0 0.0 0.0 15.0 0.0 0.0 0.0 15.0" Properties=species:S:1:pos:R:3:forces:R:3 energy=        0.1579246120 pbc="T T T"
       O     0.0061647800     0.0003149200     0.0000000000     -4.262010451      1.904202015     -0.000000000
       H     0.9124041500    -0.0409150300     0.0000000000      3.192429436      0.281451854     -0.000000000
       H    -0.2889311200     0.9648645300     0.0000000000      1.069581014     -2.185653869     -0.000000000
