       3
Lattice="15.0 0.0 0.0 0.0 15.0 0.0 0.0 0.0 15.0" Properties=species:S:1:pos:R:3:forces:R:3 energy=        1.9837068584 pbc="T T T"
       O    -0.0110802300    -0.0052426300     0.0000000000     -1.113455985    -13.278020247     -0.000000000
       H     0.8785115600     0.2154425100     0.0000000000      5.045881656     -2.831806800     -0.000000000
       H     0.0186589700     0.7967076400     0.0000000000     -3.932425671     16.109827047     -0.000000000
