       3
Lattice="15.0 0.0 0.0 0.0 15.0 0.0 0.0 0.0 15.0" Properties=species:S:1:pos:R:3:forces:R:3 energy=        3.0342689903 pbc="T T T"
       O     0.0047164300    -0.0262405900     0.0000000000    -21.274866946      0.472557157     -0.000000000
       H     0.7274775300     0.2042102700     0.0000000000     22.928766397      4.097304887     -0.000000000
       H    -0.0810113600     1.1411926200     0.0000000000     -1.653899450     -4.569862044     -0.000000000
