       3
Lattice="15.0 0.0 0.0 0.0 15.0 0.0 0.0 0.0 15.0" Properties=species:S:1:pos:R:3:forces:R:3 energy=        0.7282725959 pbc="T T T"
       O     0.0118557600     0.0022736300     0.0000000000     -3.638907368      3.273834715     -0.000000000
       H     0.9493486700    -0.1459107100     0.0000000000      0.532321758      1.274009626     -0.000000000
       H    -0.4161982700     1.0387748700     0.0000000000      3.106585609     -4.547844340     -0.000000000
