       3
Lattice="15.0 0.0 0.0 0.0 15.0 0.0 0.0 0.0 15.0" Properties=species:S:1:pos:R:3:forces:R:3 energy=        2.1097302102 pbc="T T T"
       O    -0.0310016200    -0.0087157000     0.0000000000      5.688686700      1.621654716     -0.000000000
       H     1.3665997000     0.0928853800     0.0000000000     -5.681431250     -0.514941710     -0.000000000
       H    -0.1532653000     0.9743877400     0.0000000000     -0.007255451     -1.106713058     -0.000000000
