       3
Lattice="15.0 0.0 0.0 0.0 15.0 0.0 0.0 0.0 15.0" Properties=species:S:1:pos:R:3:forces:R:3 energy=        1.3745392637 pbc="T T T"
       O     0.0114432600    -0.0115988900     0.0000000000     -7.414114223      5.183679841     -0.000000000
       H     0.8974557000    -0.0568188900     0.0000000000      5.009417020      0.558223115     -0.000000000
       H    -0.3577560900     1.1698493600     0.0000000000      2.404697203     -5.741902956     -0.000000000
