       3
Lattice="15.0 0.0 0.0 0.0 15.0 0.0 0.0 0.0 15.0" Properties=species:S:1:pos:R:3:forces:R:3 energy=        1.7015082982 pbc="T T T"
       O    -0.0071145600     0.0147381600     0.0000000000      9.917589348    -17.735351120     -0.000000000
       H     1.0925541800    -0.0625985900     0.0000000000     -5.025331796      0.895375631     -0.000000000
       H    -0.2583291300     0.7576412900     0.0000000000     -4.892257501     16.839975489     -0.000000000
