       3
Lattice="15.0 0.0 0.0 0.0 15.0 0.0 0.0 0.0 15.0" Properties=species:S:1:pos:R:3:forces:R:3 energy=        0.3679934316 pbc="T T T"
       O     0.0011620500    -0.0103774200     0.0000000000     -4.758041636      3.631035777     -0.000000000
       H     0.8891784500     0.0724652700     0.0000000000      4.840433756     -0.339101773     -0.000000000
       H    -0.1863053800     1.0211788200     0.0000000000     -0.082392120     -3.291934004     -0.000000000
