       3
Lattice="15.0 0.0 0.0 0.0 15.0 0.0 0.0 0.0 15.0" Properties=species:S:1:pos:R:3:forces:R:3 energy=        0.6887053739 pbc="T T T"
       O     0.0043101300    -0.0089878800     0.0000000000     -1.850226461      4.675881585     -0.000000000
       H     0.9660011000    -0.0303645800     0.0000000000     -0.079793813      0.517328620     -0.000000000
       H    -0.3130929100     1.1019565400     0.0000000000      1.930020222     -5.193210153     -0.000000000
