       3
Lattice="15.0 0.0 0.0 0.0 15.0 0.0 0.0 0.0 15.0" Properties=species:S:1:pos:R:3:forces:R:3 energy=        0.5315857509 pbc="T T T"
       O    -0.0109771400    -0.0184032000     0.0000000000      1.687548625      4.411377217     -0.000000000
       H     0.9470991000     0.2023808800     0.0000000000      0.156592443     -2.059676234     -0.000000000
       H    -0.0515648900     1.0186377200     0.0000000000     -1.844141068     -2.351700983     -0.000000000
