       3
Lattice="15.0 0.0 0.0 0.0 15.0 0.0 0.0 0.0 15.0" Properties=species:S:1:pos:R:3:forces:R:3 energy=        1.3527704460 pbc="T T T"
       O     0.0024621600    -0.0029872200     0.0000000000    -12.328394622     -5.108476426     -0.000000000
       H     0.7997384400     0.1026085900     0.0000000000     15.066114325     -0.214250385     -0.000000000
       H    -0.1174984000     0.8737470000     0.0000000000     -2.737719703      5.322726760     -0.000000000
