       3
Lattice="15.0 0.0 0.0 0.0 15.0 0.0 0.0 0.0 15.0" Properties=species:S:1:pos:R:3:forces:R:3 energy=        0.7610139478 pbc="T T T"
       O    -0.0130298500    -0.0225173300     0.0000000000      2.651466248      5.714490715     -0.000000000
       H     0.9678202800     0.2245515600     0.0000000000     -0.892883100     -2.262812608     -0.000000000
       H    -0.0397074100     1.0617612900     0.0000000000     -1.758583096     -3.451678056     -0.000000000
