       3
Lattice="15.0 0.0 0.0 0.0 15.0 0.0 0.0 0.0 15.0" Properties=species:S:1:pos:R:3:forces:R:3 energy=        1.8357862866 pbc="T T T"
       O    -0.0158207400     0.0058725400     0.0000000000      4.811100900     -0.767408887     -0.000000000
       H     1.3095942900    -0.0959050300     0.0000000000     -6.111717188      1.258658436     -0.000000000
       H    -0.3371966200     0.9316528000     0.0000000000      1.300616288     -0.491249549     -0.000000000
