       3
Lattice="15.0 0.0 0.0 0.0 15.0 0.0 0.0 0.0 15.0" Properties=species:S:1:pos:R:3:forces:R:3 energy=        1.4570629619 pbc="T T T"
       O     0.0135927600     0.0107941200     0.0000000000     -0.622081840      1.536400443     -0.000000000
       H     1.0385726500    -0.2634498500     0.0000000000     -3.525715989      2.747342833     -0.000000000
       H    -0.5329927500     1.0210885000     0.0000000000      4.147797829     -4.283743276     -0.000000000
