       3
Lattice="15.0 0.0 0.0 0.0 15.0 0.0 0.0 0.0 15.0" Properties=species:S:1:pos:R:3:forces:R:3 energy=        1.0768408803 pbc="T T T"
       O     0.0026225900     0.0069992300     0.0000000000     -3.418683690    -11.679943124     -0.000000000
       H     0.8663711500     0.0174224200     0.0000000000      7.066123628     -0.578644780     -0.000000000
       H    -0.1866796300     0.8004415100     0.0000000000     -3.647439937     12.258587904     -0.000000000
