       3
Lattice="15.0 0.0 0.0 0.0 15.0 0.0 0.0 0.0 15.0" Properties=species:S:1:pos:R:3:forces:R:3 energy=        0.1694401577 pbc="T T T"
       O    -0.0085729600    -0.0066086700     0.0000000000      3.250532847      1.400574038     -0.000000000
       H     1.0205142300     0.0785788900     0.0000000000     -2.670699085     -0.846287952     -0.000000000
       H    -0.1631394000     0.9552527500     0.0000000000     -0.579833762     -0.554286086     -0.000000000
