       3
Lattice="15.0 0.0 0.0 0.0 15.0 0.0 0.0 0.0 15.0" Properties=species:S:1:pos:R:3:forces:R:3 energy=        1.3027653527 pbc="T T T"
       O     0.0065590600    -0.0178499300     0.0000000000     -6.059971604      5.489117219     -0.000000000
       H     0.8991372400     0.0217650700     0.0000000000      4.578134161      0.328864356     -0.000000000
       H    -0.2819198000     1.1904736100     0.0000000000      1.481837443     -5.817981575     -0.000000000
