       3
Lattice="15.0 0.0 0.0 0.0 15.0 0.0 0.0 0.0 15.0" Properties=species:S:1:pos:R:3:forces:R:3 energy=        6.8631693944 pbc="T T T"
       O     0.0385304100     0.0170330800     0.0000000000    -55.032400176     26.031028282     -0.000000000
       H     0.6199392800    -0.2653616800     0.0000000000     51.083096336    -22.234043093     -0.000000000
       H    -0.5101382700     0.9239817100     0.0000000000      3.949303840     -3.796985189     -0.000000000
