       3
Lattice="15.0 0.0 0.0 0.0 15.0 0.0 0.0 0.0 15.0" Properties=species:S:1:pos:R:3:forces:R:3 energy=        0.1501973539 pbc="T T T"
       O     0.0004792600     0.0014496800     0.0000000000      1.305103739      1.120342688     -0.000000000
       H     1.0121620700    -0.0518866300     0.0000000000     -2.467052501      0.692753478     -0.000000000
       H    -0.2984559600     0.9578271500     0.0000000000      1.161948762     -1.813096165     -0.000000000
