       3
Lattice="15.0 0.0 0.0 0.0 15.0 0.0 0.0 0.0 15.0" Properties=species:S:1:pos:R:3:forces:R:3 energy=        1.7630220390 pbc="T T T"
       O     0.0052885800     0.0266400900     0.0000000000     10.653197171    -17.598751070     -0.000000000
       H     1.0265392100    -0.2016954000     0.0000000000     -3.937483085      2.307097104     -0.000000000
       H    -0.3891647300     0.7078463200     0.0000000000     -6.715714137     15.291653966     -0.000000000
