       3
Lattice="15.0 0.0 0.0 0.0 15.0 0.0 0.0 0.0 15.0" Properties=species:S:1:pos:R:3:forces:R:3 energy=        1.5409404973 pbc="T T T"
       O    -0.0290779400    -0.0211357000     0.0000000000      6.407555348      4.537886299     -0.000000000
       H     1.1747297600     0.2573045600     0.0000000000     -4.630255589     -2.526965506     -0.000000000
       H     0.0080787200     1.0070814400     0.0000000000     -1.777299759     -2.010920793     -0.000000000
