       3
Lattice="15.0 0.0 0.0 0.0 15.0 0.0 0.0 0.0 15.0" Properties=species:S:1:pos:R:3:forces:R:3 energy=        1.2595410103 pbc="T T T"
       O     0.0016054500     0.0209090800     0.0000000000      5.202999788     -5.672955913     -0.000000000
       H     1.1374628100    -0.2243809400     0.0000000000     -5.643352268      2.692219435     -0.000000000
       H    -0.4416348200     0.8214878100     0.0000000000      0.440352481      2.980736478     -0.000000000
