       3
Lattice="15.0 0.0 0.0 0.0 15.0 0.0 0.0 0.0 15.0" Properties=species:S:1:pos:R:3:forces:R:3 energy=        0.8307351433 pbc="T T T"
       O     0.0008902500    -0.0019811600     0.0000000000     -7.448558383     -4.672719589     -0.000000000
       H     0.8385178500     0.0886976300     0.0000000000      9.904477128     -0.649287416     -0.000000000
       H    -0.1313307800     0.8716911800     0.0000000000     -2.455918796      5.322007005     -0.000000000
