       3
Lattice="15.0 0.0 0.0 0.0 15.0 0.0 0.0 0.0 15.0" Properties=species:S:1:pos:R:3:forces:R:3 energy=        1.5707588728 pbc="T T T"
       O    -0.0284497600    -0.0144397000     0.0000000000      6.277912501      2.994926300     -0.000000000
       H     1.2490821100     0.1707276400     0.0000000000     -5.450464624     -1.494991419     -0.000000000
       H    -0.0762455000     0.9873886000     0.0000000000     -0.827447825     -1.499934881     -0.000000000
