       3
Lattice="15.0 0.0 0.0 0.0 15.0 0.0 0.0 0.0 15.0" Properties=species:S:1:pos:R:3:forces:R:3 energy=        1.1964371749 pbc="T T T"
       O    -0.0205214000    -0.0017695400     0.0000000000      6.972876768     -5.638938968     -0.000000000
       H     1.1704052300     0.0941895100     0.0000000000     -5.429801378     -0.985523539     -0.000000000
       H    -0.1233996700     0.8628420600     0.0000000000     -1.543075390      6.624462506     -0.000000000
