       3
Lattice="15.0 0.0 0.0 0.0 15.0 0.0 0.0 0.0 15.0" Properties=species:S:1:pos:R:3:forces:R:3 energy=        0.2487142150 pbc="T T T"
       O     0.0102411000     0.0062864100     0.0000000000     -4.224309936      1.326954733     -0.000000000
       H     0.9196757200    -0.1156141900     0.0000000000      2.333660829      0.778888148     -0.000000000
       H    -0.3608988500     0.9447921100     0.0000000000      1.890649055     -2.105842881     -0.000000000
