       3
Lattice="15.0 0.0 0.0 0.0 15.0 0.0 0.0 0.0 15.0" Properties=species:S:1:pos:R:3:forces:R:3 energy=        1.6641681921 pbc="T T T"
       O    -0.0106620400    -0.0346284000     0.0000000000      2.038902533      7.201559173     -0.000000000
       H     0.9639339400     0.2365502900     0.0000000000     -1.142463338     -1.837418247     -0.000000000
       H    -0.0733994300     1.2419741500     0.0000000000     -0.896439195     -5.364140926     -0.000000000
