       3
Lattice="15.0 0.0 0.0 0.0 15.0 0.0 0.0 0.0 15.0" Properties=species:S:1:pos:R:3:forces:R:3 energy=        1.2316038259 pbc="T T T"
       O    -0.0058840200    -0.0000279900     0.0000000000      3.391914329      2.447039076     -0.000000000
       H     1.1732906800    -0.0939295900     0.0000000000     -5.682769355      1.315286804     -0.000000000
       H    -0.3585956900     1.0233226600     0.0000000000      2.290855027     -3.762325880     -0.000000000
