       3
Lattice="15.0 0.0 0.0 0.0 15.0 0.0 0.0 0.0 15.0" Properties=species:S:1:pos:R:3:forces:R:3 energy=        1.2789882994 pbc="T T T"
       O     0.0132156500     0.0123240700     0.0000000000     -0.517410587      1.215002369     -0.000000000
       H     1.0345087800    -0.2604675100     0.0000000000     -3.492175161      2.720218813     -0.000000000
       H    -0.5229438300     0.9938247100     0.0000000000      4.009585748     -3.935221233     -0.000000000
