       3
Lattice="15.0 0.0 0.0 0.0 15.0 0.0 0.0 0.0 15.0" Properties=species:S:1:pos:R:3:forces:R:3 energy=        0.7689056089 pbc="T T T"
       O     0.0043060700     0.0126514600     0.0000000000      2.304795297     -0.859318155     -0.000000000
       H     1.0818405000    -0.1884517600     0.0000000000     -4.649024702      2.267978728     -0.000000000
       H    -0.4288723000     0.9166127400     0.0000000000      2.344229405     -1.408660573     -0.000000000
