       3
Lattice="15.0 0.0 0.0 0.0 15.0 0.0 0.0 0.0 15.0" Properties=species:S:1:pos:R:3:forces:R:3 energy=        2.0812880587 pbc="T T T"
       O    -0.0101426400     0.0175823300     0.0000000000      5.847958543     -5.516275177     -0.000000000
       H     1.2913336400    -0.1885993800     0.0000000000     -6.132978267      2.175381587     -0.000000000
       H    -0.4090540400     0.8385045700     0.0000000000      0.285019775      3.340893591     -0.000000000
