       3
Lattice="15.0 0.0 0.0 0.0 15.0 0.0 0.0 0.0 15.0" Properties=species:S:1:pos:R:3:forces:R:3 energy=        5.0988229446 pbc="T T T"
       O    -0.0098397100     0.0216692400     0.0000000000     20.054394090    -43.508655551     -0.000000000
       H     1.1186457700    -0.0711142400     0.0000000000     -5.638863069      1.060173086     -0.000000000
       H    -0.2411708800     0.6561557900     0.0000000000    -14.415531021     42.448482465     -0.000000000
