       3
Lattice="15.0 0.0 0.0 0.0 15.0 0.0 0.0 0.0 15.0" Properties=species:S:1:pos:R:3:forces:R:3 energy=        0.6223334538 pbc="T T T"
       O    -0.0114473600    -0.0202456500     0.0000000000      1.844535835      5.003391842     -0.000000000
       H     0.9491482100     0.2123903100     0.0000000000     -0.016236370     -2.121938200     -0.000000000
       H    -0.0461508400     1.0378692100     0.0000000000     -1.828299466     -2.881453642     -0.000000000
