       3
Lattice="15.0 0.0 0.0 0.0 15.0 0.0 0.0 0.0 15.0" Properties=species:S:1:pos:R:3:forces:R:3 energy=        1.4773009513 pbc="T T T"
       O    -0.0277268300    -0.0221008700     0.0000000000      6.300621369      5.008753880     -0.000000000
       H     1.1545683700     0.2593505500     0.0000000000     -4.498947592     -2.588909170     -0.000000000
       H     0.0067971300     1.0203532900     0.0000000000     -1.801673777     -2.419844659     -0.000000000
