       3
Lattice="15.0 0.0 0.0 0.0 15.0 0.0 0.0 0.0 15.0" Properties=species:S:1:pos:R:3:forces:R:3 energy=        2.5183241291 pbc="T T T"
       O    -0.0079518500     0.0216608400     0.0000000000     12.282861443    -18.974044159     -0.000000000
       H     1.1841160200    -0.1451929700     0.0000000000     -6.206379801      1.949722852     -0.000000000
       H    -0.3366047700     0.7303685000     0.0000000000     -6.076481643     17.024321307     -0.000000000
