       3
Lattice="15.0 0.0 0.0 0.0 15.0 0.0 0.0 0.0 15.0" Properties=species:S:1:pos:R:3:forces:R:3 energy=        2.4719974628 pbc="T T T"
       O     0.0275796000     0.0027078900     0.0000000000    -10.629627600      4.966519686     -0.000000000
       H     0.8583894800    -0.2704276000     0.0000000000      6.267579747      0.229473379     -0.000000000
       H    -0.5747909900     1.1564001000     0.0000000000      4.362047854     -5.195993065     -0.000000000
