       3
Lattice="15.0 0.0 0.0 0.0 15.0 0.0 0.0 0.0 15.0" Properties=species:S:1:pos:R:3:forces:R:3 energy=        1.1516698816 pbc="T T T"
       O    -0.0089593900    -0.0225426100     0.0000000000      2.953183032      6.436463972     -0.000000000
       H     1.0416916300     0.1171041600     0.0000000000     -3.293641526     -0.937200249     -0.000000000
       H    -0.1781825500     1.1696108800     0.0000000000      0.340458494     -5.499263774     -0.000000000
