       3
Lattice="15.0 0.0 0.0 0.0 15.0 0.0 0.0 0.0 15.0" Properties=species:S:1:pos:R:3:forces:R:3 energy=        3.9647440512 pbc="T T T"
       O     0.0041367000    -0.0227763000     0.0000000000    -27.754988990     -4.380471256     -0.000000000
       H     0.6790249400     0.2380635100     0.0000000000     30.975700883      6.744809423     -0.000000000
       H    -0.0233572400     1.0523581700     0.0000000000     -3.220711944     -2.364338167     -0.000000000
