       3
Lattice="15.0 0.0 0.0 0.0 15.0 0.0 0.0 0.0 15.0" Properties=species:S:1:pos:R:3:forces:R:3 energy=        1.3573150114 pbc="T T T"
       O    -0.0162291300    -0.0090715200     0.0000000000      4.848350032      3.835677122     -0.000000000
       H     1.2168029100     0.0282711800     0.0000000000     -5.861243542     -0.001308795     -0.000000000
       H    -0.2379203200     1.0446489000     0.0000000000      1.012893511     -3.834368327     -0.000000000
