       3
Lattice="15.0 0.0 0.0 0.0 15.0 0.0 0.0 0.0 15.0" Properties=species:S:1:pos:R:3:forces:R:3 energy=        0.9794772623 pbc="T T T"
       O    -0.0174536100    -0.0136625500     0.0000000000      3.428789776     -1.429905146     -0.000000000
       H     0.9657062600     0.2528102700     0.0000000000     -0.231422379     -3.249523792     -0.000000000
       H     0.0326154500     0.8929705200     0.0000000000     -3.197367397      4.679428937     -0.000000000
