       3
Lattice="15.0 0.0 0.0 0.0 15.0 0.0 0.0 0.0 15.0" Properties=species:S:1:pos:R:3:forces:R:3 energy=        1.1789675140 pbc="T T T"
       O     0.0000295300     0.0167516900     0.0000000000      7.631631299    -15.350732391     -0.000000000
       H     1.0150418800    -0.0967967600     0.0000000000     -3.082447721      1.135006776     -0.000000000
       H    -0.2941995800     0.7598831800     0.0000000000     -4.549183577     14.215725615     -0.000000000
