       3
Lattice="15.0 0.0 0.0 0.0 15.0 0.0 0.0 0.0 15.0" Properties=species:S:1:pos:R:3:forces:R:3 energy=        0.3541369231 pbc="T T T"
       O    -0.0037299000     0.0020801900     0.0000000000      1.687150309     -6.416332019     -0.000000000
       H     0.9487746900     0.0472220100     0.0000000000      0.487896983     -0.683713063     -0.000000000
       H    -0.1682637200     0.8487109300     0.0000000000     -2.175047292      7.100045031     -0.000000000
