       3
Lattice="15.0 0.0 0.0 0.0 15.0 0.0 0.0 0.0 15.0" Properties=species:S:1:pos:R:3:forces:R:3 energy=        1.2922024478 pbc="T T T"
       O    -0.0061374600    -0.0234816300     0.0000000000      2.129200644      6.366733615     -0.000000000
       H     1.0255363300     0.0978304600     0.0000000000     -2.789411705     -0.653861153     -0.000000000
       H    -0.2068138700     1.2037875700     0.0000000000      0.660211061     -5.712872462     -0.000000000
