       3
Lattice="15.0 0.0 0.0 0.0 15.0 0.0 0.0 0.0 15.0" Properties=species:S:1:pos:R:3:forces:R:3 energy=        1.4433270216 pbc="T T T"
       O    -0.0094804300    -0.0319108300     0.0000000000     -0.568924566      6.308359725     -0.000000000
       H     0.8825328500     0.2766349600     0.0000000000      2.612893254     -1.830892939     -0.000000000
       H    -0.0107503700     1.1587590200     0.0000000000     -2.043968740     -4.477466786     -0.000000000
