       3
Lattice="15.0 0.0 0.0 0.0 15.0 0.0 0.0 0.0 15.0" Properties=species:S:1:pos:R:3:forces:R:3 energy=        0.1685380159 pbc="T T T"
       O     0.0000000000     0.0000000000     0.0000000000      0.152928208      3.456207930     -0.000000000
       H     0.9588300000     0.0000000000     0.0000000000      0.324091255     -0.723993424     -0.000000000
       H    -0.0744400000     1.0288900000     0.0000000000     -0.477019463     -2.732214557     -0.000000000
