       3
Lattice="15.0 0.0 0.0 0.0 15.0 0.0 0.0 0.0 15.0" Properties=species:S:1:pos:R:3:forces:R:3 energy=        0.7168432995 pbc="T T T"
       O     0.0000000000     0.0000000000     0.0000000000     -3.722154379      0.745925356     -0.000000000
       H     0.9588300000     0.0000000000     0.0000000000     -0.447820562      1.691311384     -0.000000000
       H    -0.7062700000     0.8016900000     0.0000000000      4.169974993     -2.437236689     -0.000000000
