       3
Lattice="15.0 0.0 0.0 0.0 15.0 0.0 0.0 0.0 15.0" Properties=species:S:1:pos:R:3:forces:R:3 energy=        1.5568788374 pbc="T T T"
       O     0.0000000000     0.0000000000     0.0000000000     -5.088860134      1.965524500     -0.000000000
       H     0.9588300000     0.0000000000     0.0000000000     -0.202008020      1.842264419     -0.000000000
       H    -0.8036900000     0.9122700000     0.0000000000      5.290868102     -3.807788919     -0.000000000
