       3
Lattice="15.0 0.0 0.0 0.0 15.0 0.0 0.0 0.0 15.0" Properties=species:S:1:pos:R:3:forces:R:3 energy=        1.4906009216 pbc="T T T"
       O     0.0000000000     0.0000000000     0.0000000000      0.269433587      6.418273974     -0.000000000
       H     0.9588300000     0.0000000000     0.0000000000      0.475132735     -0.724229195     -0.000000000
       H     0.0465500000     1.2886300000     0.0000000000     -0.744566270     -5.694044779     -0.000000000
