       3
Lattice="15.0 0.0 0.0 0.0 15.0 0.0 0.0 0.0 15.0" Properties=species:S:1:pos:R:3:forces:R:3 energy=        3.9897065577 pbc="T T T"
       O     0.0000000000     0.0000000000     0.0000000000     29.309512788    -24.393391890     -0.000000000
       H     0.9588300000     0.0000000000     0.0000000000     -1.397195607      1.467798750     -0.000000000
       H    -0.5648200000     0.4134900000     0.0000000000    -27.912317181     22.925593140     -0.000000000
