       3
Lattice="15.0 0.0 0.0 0.0 15.0 0.0 0.0 0.0 15.0" Properties=species:S:1:pos:R:3:forces:R:3 energy=        1.8725740396 pbc="T T T"
       O     0.0000000000     0.0000000000     0.0000000000     -1.141753611      5.780241568     -0.000000000
       H     0.9588300000     0.0000000000     0.0000000000      0.344525209      0.075057993     -0.000000000
       H    -0.1718300000     1.3522900000     0.0000000000      0.797228401     -5.855299560     -0.000000000
