       3
Lattice="15.0 0.0 0.0 0.0 15.0 0.0 0.0 0.0 15.0" Properties=species:S:1:pos:R:3:forces:R:3 energy=        0.7600109334 pbc="T T T"
       O     0.0000000000     0.0000000000     0.0000000000      5.007512963     -8.611917138     -0.000000000
       H     0.9588300000     0.0000000000     0.0000000000     -0.817679326      1.421997200     -0.000000000
       H    -0.5601500000     0.6358200000     0.0000000000     -4.189833689      7.189919938     -0.000000000
