       3
Lattice="15.0 0.0 0.0 0.0 15.0 0.0 0.0 0.0 15.0" Properties=species:S:1:pos:R:3:forces:R:3 energy=        2.2774639147 pbc="T T T"
       O     0.0000000000     0.0000000000     0.0000000000      9.304450941    -25.466956573     -0.000000000
       H     0.9588300000     0.0000000000     0.0000000000     -0.318159511      0.063027230     -0.000000000
       H    -0.2478400000     0.6939100000     0.0000000000     -8.986291378     25.403929343     -0.000000000
