       3
Lattice="15.0 0.0 0.0 0.0 15.0 0.0 0.0 0.0 15.0" Properties=species:S:1:pos:R:3:forces:R:3 energy=        4.2089678705 pbc="T T T"
       O     0.0000000000     0.0000000000     0.0000000000     -4.485082346    -34.556048726     -0.000000000
       H     0.9588300000     0.0000000000     0.0000000000      1.398177769     -3.233963468     -0.000000000
       H     0.1381100000     0.6862400000     0.0000000000      3.086904577     37.790012194     -0.000000000
