       3
Lattice="15.0 0.0 0.0 0.0 15.0 0.0 0.0 0.0 15.0" Properties=species:S:1:pos:R:3:forces:R:3 energy=        0.2577014283 pbc="T T T"
       O     0.0000000000     0.0000000000     0.0000000000      0.945030393     -1.335554563     -0.000000000
       H     0.9588300000     0.0000000000     0.0000000000      0.587952795     -1.572464347     -0.000000000
       H     0.0332500000     0.9204500000     0.0000000000     -1.532983188      2.908018910     -0.000000000
