       3
Lattice="15.0 0.0 0.0 0.0 15.0 0.0 0.0 0.0 15.0" Properties=species:S:1:pos:R:3:forces:R:3 energy=        2.1325122520 pbc="T T T"
       O     0.0000000000     0.0000000000     0.0000000000      1.633158454      6.331094355     -0.000000000
       H     0.9588300000     0.0000000000     0.0000000000      0.727131149     -1.548535902     -0.000000000
       H     0.3409100000     1.3198400000     0.0000000000     -2.360289654     -4.782558453     -0.000000000
