       3
Lattice="15.0 0.0 0.0 0.0 15.0 0.0 0.0 0.0 15.0" Properties=species:S:1:pos:R:3:forces:R:3 energy=        2.1080945665 pbc="T T T"
       O     0.0000000000     0.0000000000     0.0000000000     15.826786867    -13.248076651     -0.000000000
       H     0.9588300000     0.0000000000     0.0000000000     -1.318044673      1.528012729     -0.000000000
       H    -0.6481000000     0.4225500000     0.0000000000    -14.508742194     11.720063922     -0.000000000
