       3
Lattice="15.0 0.0 0.0 0.0 15.0 0.0 0.0 0.0 15.0" Properties=species:S:1:pos:R:3:forces:R:3 energy=        0.7907314807 pbc="T T T"
       O     0.0000000000     0.0000000000     0.0000000000     -0.813991385      5.672022242     -0.000000000
       H     0.9588300000     0.0000000000     0.0000000000      0.271634863     -0.188367900     -0.000000000
       H    -0.1486100000     1.1695500000     0.0000000000      0.542356522     -5.483654342     -0.000000000
