       3
Lattice="15.0 0.0 0.0 0.0 15.0 0.0 0.0 0.0 15.0" Properties=species:S:1:pos:R:3:forces:R:3 energy=        0.8180500768 pbc="T T T"
       O     0.0000000000     0.0000000000     0.0000000000      1.887788856      3.703107484     -0.000000000
       H     0.9588300000     0.0000000000     0.0000000000      1.228814650     -2.952313793     -0.000000000
       H     0.3116800000     0.9833700000     0.0000000000     -3.116603557     -0.750793691     -0.000000000
