       3
Lattice="15.0 0.0 0.0 0.0 15.0 0.0 0.0 0.0 15.0" Properties=species:S:1:pos:R:3:forces:R:3 energy=        0.4975313462 pbc="T T T"
       O     0.0000000000     0.0000000000     0.0000000000      1.412048209      2.582042881     -0.000000000
       H     0.9588300000     0.0000000000     0.0000000000      0.958196093     -2.366582227     -0.000000000
       H     0.1962700000     0.9751900000     0.0000000000     -2.370244250     -0.215460604     -0.000000000
