       3
Lattice="15.0 0.0 0.0 0.0 15.0 0.0 0.0 0.0 15.0" Properties=species:S:1:pos:R:3:forces:R:3 energy=        0.5295052690 pbc="T T T"
       O     0.0000000000     0.0000000000     0.0000000000      2.534789377     -5.895597199     -0.000000000
       H     0.9588300000     0.0000000000     0.0000000000     -0.755202929      1.467783530     -0.000000000
       H    -0.5845000000     0.6634700000     0.0000000000     -1.779586448      4.427813670     -0.000000000
