       3
Lattice="15.0 0.0 0.0 0.0 15.0 0.0 0.0 0.0 15.0" Properties=species:S:1:pos:R:3:forces:R:3 energy=        1.3796081762 pbc="T T T"
       O     0.0000000000     0.0000000000     0.0000000000     -0.747793983     -7.261635084     -0.000000000
       H     0.9588300000     0.0000000000     0.0000000000      1.620293933     -3.648074280     -0.000000000
       H     0.2560200000     0.8077700000     0.0000000000     -0.872499899     10.909709364     -0.000000000
