       3
Lattice="15.0 0.0 0.0 0.0 15.0 0.0 0.0 0.0 15.0" Properties=species:S:1:pos:R:3:forces:R:3 energy=        1.1092508955 pbc="T T T"
       O     0.0000000000     0.0000000000     0.0000000000     -3.079690829      4.381120923     -0.000000000
       H     0.9588300000     0.0000000000     0.0000000000      0.038960510      0.943548203     -0.000000000
       H    -0.4703300000     1.1211300000     0.0000000000      3.040730319     -5.324669126     -0.000000000
