       3
Lattice="15.0 0.0 0.0 0.0 15.0 0.0 0.0 0.0 15.0" Properties=species:S:1:pos:R:3:forces:R:3 energy=        0.3169124002 pbc="T T T"
       O     0.0000000000     0.0000000000     0.0000000000     -2.159786502      2.845576606     -0.000000000
       H     0.9588300000     0.0000000000     0.0000000000     -0.109993079      0.772615168     -0.000000000
       H    -0.4133200000     0.9852400000     0.0000000000      2.269779581     -3.618191825     -0.000000000
