       3
Lattice="15.0 0.0 0.0 0.0 15.0 0.0 0.0 0.0 15.0" Properties=species:S:1:pos:R:3:forces:R:3 energy=        2.6212260615 pbc="T T T"
       O     0.0000000000     0.0000000000     0.0000000000     18.323502251    -21.492978358     -0.000000000
       H     0.9588300000     0.0000000000     0.0000000000     -1.090283135      1.380996313     -0.000000000
       H    -0.5163000000     0.5257100000     0.0000000000    -17.233219115     20.111982046     -0.000000000
