       3
Lattice="15.0 0.0 0.0 0.0 15.0 0.0 0.0 0.0 15.0" Properties=species:S:1:pos:R:3:forces:R:3 energy=        0.3747435343 pbc="T T T"
       O     0.0000000000     0.0000000000     0.0000000000     -2.007124763     -0.638153814     -0.000000000
       H     0.9588300000     0.0000000000     0.0000000000     -0.508953196      1.497158397     -0.000000000
       H    -0.6161900000     0.7809100000     0.0000000000      2.516077908     -0.859004583     -0.000000000
