       3
Lattice="15.0 0.0 0.0 0.0 15.0 0.0 0.0 0.0 15.0" Properties=species:S:1:pos:R:3:forces:R:3 energy=        1.7928839120 pbc="T T T"
       O     0.0000000000     0.0000000000     0.0000000000     -5.194692652      2.014338407     -0.000000000
       H     0.9588300000     0.0000000000     0.0000000000     -0.140790950      1.873063884     -0.000000000
       H    -0.8280400000     0.9399100000     0.0000000000      5.335483602     -3.887402291     -0.000000000
