       3
Lattice="15.0 0.0 0.0 0.0 15.0 0.0 0.0 0.0 15.0" Properties=species:S:1:pos:R:3:forces:R:3 energy=        1.6623615956 pbc="T T T"
       O     0.0000000000     0.0000000000     0.0000000000      1.453516986      6.525178540     -0.000000000
       H     0.9588300000     0.0000000000     0.0000000000      0.689069959     -1.488268341     -0.000000000
       H     0.2544200000     1.2641200000     0.0000000000     -2.142586996     -5.036910199     -0.000000000
