       3
Lattice="15.0 0.0 0.0 0.0 15.0 0.0 0.0 0.0 15.0" Properties=species:S:1:pos:R:3:forces:R:3 energy=        2.9269247828 pbc="T T T"
       O     0.0000000000     0.0000000000     0.0000000000     22.294204827    -17.436389634     -0.000000000
       H     0.9588300000     0.0000000000     0.0000000000     -1.393959564      1.492034906     -0.000000000
       H    -0.6172400000     0.4024300000     0.0000000000    -20.900245263     15.944354780     -0.000000000
