       3
Lattice="15.0 0.0 0.0 0.0 15.0 0.0 0.0 0.0 15.0" Properties=species:S:1:pos:R:3:forces:R:3 energy=        1.8818516773 pbc="T T T"
       O     0.0000000000     0.0000000000     0.0000000000     -1.575423328      5.549429003     -0.000000000
       H     0.9588300000     0.0000000000     0.0000000000      0.307658967      0.283833159     -0.000000000
       H    -0.2447900000     1.3410000000     0.0000000000      1.267764362     -5.833262162     -0.000000000
