       3
Lattice="15.0 0.0 0.0 0.0 15.0 0.0 0.0 0.0 15.0" Properties=species:S:1:pos:R:3:forces:R:3 energy=        3.4672601970 pbc="T T T"
       O     0.0000000000     0.0000000000     0.0000000000     15.960084899    -33.641647179     -0.000000000
       H     0.9588300000     0.0000000000     0.0000000000     -0.578113076      0.461322716     -0.000000000
       H    -0.3053400000     0.6298900000     0.0000000000    -15.381971823     33.180324463     -0.000000000
