       3
Lattice="15.0 0.0 0.0 0.0 15.0 0.0 0.0 0.0 15.0" Properties=species:S:1:pos:R:3:forces:R:3 energy=        1.1995287203 pbc="T T T"
       O     0.0000000000     0.0000000000     0.0000000000     -4.852531110      1.234997231     -0.000000000
       H     0.9588300000     0.0000000000     0.0000000000     -0.373766071      1.859085355     -0.000000000
       H    -0.8002700000     0.8148500000     0.0000000000      5.226297181     -3.094082586     -0.000000000
