       3
Lattice="15.0 0.0 0.0 0.0 15.0 0.0 0.0 0.0 15.0" Properties=species:S:1:pos:R:3:forces:R:3 energy=        1.4539837269 pbc="T T T"
       O     0.0000000000     0.0000000000     0.0000000000     -1.944333457      5.449824676     -0.000000000
       H     0.9588300000     0.0000000000     0.0000000000      0.224847603      0.414767730     -0.000000000
       H    -0.2998900000     1.2541100000     0.0000000000      1.719485855     -5.864592457     -0.000000000
