       3
Lattice="15.0 0.0 0.0 0.0 15.0 0.0 0.0 0.0 15.0" Properties=species:S:1:pos:R:3:forces:R:3 energy=        0.2217969351 pbc="T T T"
       O     0.0000000000     0.0000000000     0.0000000000     -1.990727750      1.663884591     -0.000000000
       H     0.9588300000     0.0000000000     0.0000000000     -0.211279062      0.919442660     -0.000000000
       H    -0.4499800000     0.9282600000     0.0000000000      2.202006761     -2.583327251     -0.000000000
