       3
Lattice="15.0 0.0 0.0 0.0 15.0 0.0 0.0 0.0 15.0" Properties=species:S:1:pos:R:3:forces:R:3 energy=        0.5409714885 pbc="T T T"
       O     0.0000000000     0.0000000000     0.0000000000     -2.183492496     -1.147185120     -0.000000000
       H     0.9588300000     0.0000000000     0.0000000000     -0.631175374      1.689292090     -0.000000000
       H    -0.6970100000     0.7097100000     0.0000000000      2.814667921     -0.542107022     -0.000000000
