       3
Lattice="15.0 0.0 0.0 0.0 15.0 0.0 0.0 0.0 15.0" Properties=species:S:1:pos:R:3:forces:R:3 energy=        0.9042071182 pbc="T T T"
       O     0.0000000000     0.0000000000     0.0000000000      0.363709299     -3.852827365     -0.000000000
       H     0.9588300000     0.0000000000     0.0000000000      1.317484790     -3.105954660     -0.000000000
       H     0.2211300000     0.8561100000     0.0000000000     -1.681194037      6.958782026     -0.000000000
