       3
Lattice="15.0 0.0 0.0 0.0 15.0 0.0 0.0 0.0 15.0" Properties=species:S:1:pos:R:3:forces:R:3 energy=        0.9115983701 pbc="T T T"
       O     0.0000000000     0.0000000000     0.0000000000      6.069253908    -12.739252987     -0.000000000
       H     0.9588300000     0.0000000000     0.0000000000     -0.546840682      0.802432265     -0.000000000
       H    -0.3925300000     0.7091400000     0.0000000000     -5.522413175     11.936820722     -0.000000000
