       3
Lattice="15.0 0.0 0.0 0.0 15.0 0.0 0.0 0.0 15.0" Properties=species:S:1:pos:R:3:forces:R:3 energy=        2.8236985533 pbc="T T T"
       O     0.0000000000     0.0000000000     0.0000000000     -4.761063558    -11.080395213     -0.000000000
       H     0.9588300000     0.0000000000     0.0000000000      3.000095505     -5.879141977     -0.000000000
       H     0.4052700000     0.7019400000     0.0000000000      1.760968053     16.959537190     -0.000000000
