       3
Lattice="15.0 0.0 0.0 0.0 15.0 0.0 0.0 0.0 15.0" Properties=species:S:1:pos:R:3:forces:R:3 energy=        1.1669355072 pbc="T T T"
       O     0.0000000000     0.0000000000     0.0000000000      6.760125800     -7.421291769     -0.000000000
       H     0.9588300000     0.0000000000     0.0000000000     -1.167189032      1.605779689     -0.000000000
       H    -0.7098300000     0.4627900000     0.0000000000     -5.592936768      5.815512080     -0.000000000
