       3
Lattice="15.0 0.0 0.0 0.0 15.0 0.0 0.0 0.0 15.0" Properties=species:S:1:pos:R:3:forces:R:3 energy=        0.8831801945 pbc="T T T"
       O     0.0000000000     0.0000000000     0.0000000000      1.918873919      5.372421888     -0.000000000
       H     0.9588300000     0.0000000000     0.0000000000      0.959972572     -2.338409865     -0.000000000
       H     0.2764100000     1.0701400000     0.0000000000     -2.878846491     -3.034012023     -0.000000000
