       3
Lattice="15.0 0.0 0.0 0.0 15.0 0.0 0.0 0.0 15.0" Properties=species:S:1:pos:R:3:forces:R:3 energy=        2.9370053823 pbc="T T T"
       O     0.0000000000     0.0000000000     0.0000000000     -5.365297563    -16.810847190     -0.000000000
       H     0.9588300000     0.0000000000     0.0000000000      2.393580314     -4.860726197     -0.000000000
       H     0.3121300000     0.7079200000     0.0000000000      2.971717249     21.671573387     -0.000000000
