       3
Lattice="15.0 0.0 0.0 0.0 15.0 0.0 0.0 0.0 15.0" Properties=species:S:1:pos:R:3:forces:R:3 energy=        0.4542706657 pbc="T T T"
       O     0.0000000000     0.0000000000     0.0000000000      2.107107196     -8.144437963     -0.000000000
       H     0.9588300000     0.0000000000     0.0000000000      0.089264373     -0.532531920     -0.000000000
       H    -0.1521600000     0.8336000000     0.0000000000     -2.196371569      8.676969935     -0.000000000
