       3
Lattice="15.0 0.0 0.0 0.0 15.0 0.0 0.0 0.0 15.0" Properties=species:S:1:pos:R:3:forces:R:3 energy=        1.2011486522 pbc="T T T"
       O     0.0000000000     0.0000000000     0.0000000000     -0.341689487     -7.328417669     -0.000000000
       H     0.9588300000     0.0000000000     0.0000000000      1.388177253     -3.228794211     -0.000000000
       H     0.2119200000     0.8204400000     0.0000000000     -1.046487766     10.557211880     -0.000000000
