       3
Lattice="15.0 0.0 0.0 0.0 15.0 0.0 0.0 0.0 15.0" Properties=species:S:1:pos:R:3:forces:R:3 energy=        2.1976174957 pbc="T T T"
       O     0.0000000000     0.0000000000     0.0000000000      0.858341804      6.222098453     -0.000000000
       H     0.9588300000     0.0000000000     0.0000000000      0.581421522     -0.978267831     -0.000000000
       H     0.2015100000     1.3854200000     0.0000000000     -1.439763274     -5.243830571     -0.000000000
