       3
Lattice="15.0 0.0 0.0 0.0 15.0 0.0 0.0 0.0 15.0" Properties=species:S:1:pos:R:3:forces:R:3 energy=        1.1435889680 pbc="T T T"
       O     0.0000000000     0.0000000000     0.0000000000      8.153233043    -12.096185433     -0.000000000
       H     0.9588300000     0.0000000000     0.0000000000     -0.880439366      1.376836626     -0.000000000
       H    -0.5357900000     0.6081800000     0.0000000000     -7.272793677     10.719348807     -0.000000000
