       3
Lattice="15.0 0.0 0.0 0.0 15.0 0.0 0.0 0.0 15.0" Properties=species:S:1:pos:R:3:forces:R:3 energy=        2.4342007334 pbc="T T T"
       O     0.0000000000     0.0000000000     0.0000000000     -6.280394491     -0.090281193     -0.000000000
       H     0.9588300000     0.0000000000     0.0000000000     -0.407197010      2.097455219     -0.000000000
       H    -1.0848100000     0.6263100000     0.0000000000      6.687591501     -2.007174025     -0.000000000
