       3
Lattice="15.0 0.0 0.0 0.0 15.0 0.0 0.0 0.0 15.0" Properties=species:S:1:pos:R:3:forces:R:3 energy=        1.9119020000 pbc="T T T"
       O     0.0000000000     0.0000000000     0.0000000000      0.140974167      6.249753971     -0.000000000
       H     0.9588300000     0.0000000000     0.0000000000      0.476983365     -0.587360310     -0.000000000
       H     0.0492100000     1.3622700000     0.0000000000     -0.617957583     -5.662393662     -0.000000000
