       3
Lattice="15.0 0.0 0.0 0.0 15.0 0.0 0.0 0.0 15.0" Properties=species:S:1:pos:R:3:forces:R:3 energy=        0.0379989590 pbc="T T T"
       O     0.0000000000     0.0000000000     0.0000000000     -0.166241387      1.840411424     -0.000000000
       H     0.9588300000     0.0000000000     0.0000000000      0.133343335     -0.260720937     -0.000000000
       H    -0.1786300000     0.9785700000     0.0000000000      0.032898052     -1.579690488     -0.000000000
