       3
Lattice="15.0 0.0 0.0 0.0 15.0 0.0 0.0 0.0 15.0" Properties=species:S:1:pos:R:3:forces:R:3 energy=        1.7058278935 pbc="T T T"
       O     0.0000000000     0.0000000000     0.0000000000     -5.531994138     -0.236775367     -0.000000000
       H     0.9588300000     0.0000000000     0.0000000000     -0.642448946      1.930310757     -0.000000000
       H    -0.9891000000     0.5710500000     0.0000000000      6.174443085     -1.693535390     -0.000000000
