       3
Lattice="15.0 0.0 0.0 0.0 15.0 0.0 0.0 0.0 15.0" Properties=species:S:1:pos:R:3:forces:R:3 energy=        2.3379690818 pbc="T T T"
       O     0.0000000000     0.0000000000     0.0000000000     -2.743574314     -7.048748927     -0.000000000
       H     0.9588300000     0.0000000000     0.0000000000      2.836867761     -5.708687270     -0.000000000
       H     0.4236900000     0.7338400000     0.0000000000     -0.093293448     12.757436197     -0.000000000
