       3
Lattice="15.0 0.0 0.0 0.0 15.0 0.0 0.0 0.0 15.0" Properties=species:S:1:pos:R:3:forces:R:3 energy=        0.1857606490 pbc="T T T"
       O     0.0000000000     0.0000000000     0.0000000000     -0.765058846     -1.469438292     -0.000000000
       H     0.9588300000     0.0000000000     0.0000000000     -0.434136887      1.172644350     -0.000000000
       H    -0.5085800000     0.8117300000     0.0000000000      1.199195682      0.296793942     -0.000000000
