       3
Lattice="15.0 0.0 0.0 0.0 15.0 0.0 0.0 0.0 15.0" Properties=species:S:1:pos:R:3:forces:R:3 energy=        1.7947486321 pbc="T T T"
       O     0.0000000000     0.0000000000     0.0000000000      1.010524752      6.475205732     -0.000000000
       H     0.9588300000     0.0000000000     0.0000000000      0.598725157     -1.140711388     -0.000000000
       H     0.1909100000     1.3125100000     0.0000000000     -1.609249909     -5.334494344     -0.000000000
