       3
Lattice="15.0 0.0 0.0 0.0 15.0 0.0 0.0 0.0 15.0" Properties=species:S:1:pos:R:3:forces:R:3 energy=        2.7222171913 pbc="T T T"
       O     0.0000000000     0.0000000000     0.0000000000     -0.332453772    -25.505063837     -0.000000000
       H     0.9588300000     0.0000000000     0.0000000000      0.904856167     -2.369288622     -0.000000000
       H     0.0664300000     0.7338400000     0.0000000000     -0.572402396     27.874352459     -0.000000000
