       3
Lattice="15.0 0.0 0.0 0.0 15.0 0.0 0.0 0.0 15.0" Properties=species:S:1:pos:R:3:forces:R:3 energy=        4.0514054774 pbc="T T T"
       O     0.0000000000     0.0000000000     0.0000000000     -2.720353744    -34.872372777     -0.000000000
       H     0.9588300000     0.0000000000     0.0000000000      1.157060012     -2.832905330     -0.000000000
       H     0.1007600000     0.6927100000     0.0000000000      1.563293732     37.705278055     -0.000000000
