       3
Lattice="15.0 0.0 0.0 0.0 15.0 0.0 0.0 0.0 15.0" Properties=species:S:1:pos:R:3:forces:R:3 energy=        3.7675520132 pbc="T T T"
       O     0.0000000000     0.0000000000     0.0000000000     25.218384156    -28.465897961     -0.000000000
       H     0.9588300000     0.0000000000     0.0000000000     -1.157078781      1.342382027     -0.000000000
       H    -0.4904900000     0.4994200000     0.0000000000    -24.061305426     27.123515934     -0.000000000
