       3
Lattice="15.0 0.0 0.0 0.0 15.0 0.0 0.0 0.0 15.0" Properties=species:S:1:pos:R:3:forces:R:3 energy=        1.7418720872 pbc="T T T"
       O     0.0000000000     0.0000000000     0.0000000000      0.617035174      6.437510668     -0.000000000
       H     0.9588300000     0.0000000000     0.0000000000      0.533979144     -0.894436407     -0.000000000
       H     0.1195700000     1.3209200000     0.0000000000     -1.151014317     -5.543074261     -0.000000000
