       3
Lattice="15.0 0.0 0.0 0.0 15.0 0.0 0.0 0.0 15.0" Properties=species:S:1:pos:R:3:forces:R:3 energy=        2.3939361625 pbc="T T T"
       O     0.0000000000     0.0000000000     0.0000000000      2.641717443      5.887552162     -0.000000000
       H     0.9588300000     0.0000000000     0.0000000000      1.176532580     -2.741927110     -0.000000000
       H     0.6000000000     1.1828500000     0.0000000000     -3.818250022     -3.145625052     -0.000000000
