       3
Lattice="15.0 0.0 0.0 0.0 15.0 0.0 0.0 0.0 15.0" Properties=species:S:1:pos:R:3:forces:R:3 energy=        1.5966414697 pbc="T T T"
       O     0.0000000000     0.0000000000     0.0000000000     10.598286661    -17.360684032     -0.000000000
       H     0.9588300000     0.0000000000     0.0000000000     -0.774178502      1.085207261     -0.000000000
       H    -0.4456700000     0.6324200000     0.0000000000     -9.824108159     16.275476771     -0.000000000
