       3
Lattice="15.0 0.0 0.0 0.0 15.0 0.0 0.0 0.0 15.0" Properties=species:S:1:pos:R:3:forces:R:3 energy=        1.1156962633 pbc="T T T"
       O     0.0000000000     0.0000000000     0.0000000000      1.010225218    -12.266284659     -0.000000000
       H     0.9588300000     0.0000000000     0.0000000000      0.660658228     -1.842063616     -0.000000000
       H     0.0292600000     0.8100000000     0.0000000000     -1.670883446     14.108348223     -0.000000000
