       3
Lattice="15.0 0.0 0.0 0.0 15.0 0.0 0.0 0.0 15.0" Properties=species:S:1:pos:R:3:forces:R:3 energy=        0.5340704606 pbc="T T T"
       O     0.0000000000     0.0000000000     0.0000000000     -2.850963533      3.121403141     -0.000000000
       H     0.9588300000     0.0000000000     0.0000000000     -0.128098282      1.011808042     -0.000000000
       H    -0.4821200000     0.9945600000     0.0000000000      2.979061763     -4.133211183     -0.000000000
