       3
Lattice="15.0 0.0 0.0 0.0 15.0 0.0 0.0 0.0 15.0" Properties=species:S:1:pos:R:3:forces:R:3 energy=        1.7229155717 pbc="T T T"
       O     0.0000000000     0.0000000000     0.0000000000     12.156003050    -16.559280465     -0.000000000
       H     0.9588300000     0.0000000000     0.0000000000     -0.943393114      1.332863799     -0.000000000
       H    -0.5114300000     0.5805300000     0.0000000000    -11.212609936     15.226416615     -0.000000000
