       3
Lattice="15.0 0.0 0.0 0.0 15.0 0.0 0.0 0.0 15.0" Properties=species:S:1:pos:R:3:forces:R:3 energy=        5.6512283310 pbc="T T T"
       O     0.0000000000     0.0000000000     0.0000000000    -15.248628026    -31.298797994     -0.000000000
       H     0.9588300000     0.0000000000     0.0000000000      3.451070195     -6.245854789     -0.000000000
       H     0.3500000000     0.6062200000     0.0000000000     11.797557882     37.544652783     -0.000000000
