       3
Lattice="15.0 0.0 0.0 0.0 15.0 0.0 0.0 0.0 15.0" Properties=species:S:1:pos:R:3:forces:R:3 energy=        1.1931305370 pbc="T T T"
       O     0.0000000000     0.0000000000     0.0000000000     -4.289016354     -0.603723744     -0.000000000
       H     0.9588300000     0.0000000000     0.0000000000     -0.732954957      1.872206986     -0.000000000
       H    -0.8950000000     0.5835200000     0.0000000000      5.021971311     -1.268483191     -0.000000000
