       3
Lattice="15.0 0.0 0.0 0.0 15.0 0.0 0.0 0.0 15.0" Properties=species:S:1:pos:R:3:forces:R:3 energy=        0.4386039007 pbc="T T T"
       O     0.0000000000     0.0000000000     0.0000000000     -0.152489012      5.067634845     -0.000000000
       H     0.9588300000     0.0000000000     0.0000000000      0.327643390     -0.575045337     -0.000000000
       H    -0.0797500000     1.1023800000     0.0000000000     -0.175154429     -4.492589508     -0.000000000
