       3
Lattice="15.0 0.0 0.0 0.0 15.0 0.0 0.0 0.0 15.0" Properties=species:S:1:pos:R:3:forces:R:3 energy=        2.0780352395 pbc="T T T"
       O     0.0000000000     0.0000000000     0.0000000000     -6.024549911      0.185424551     -0.000000000
       H     0.9588300000     0.0000000000     0.0000000000     -0.433114565      2.073104546     -0.000000000
       H    -1.0184500000     0.6640100000     0.0000000000      6.457664475     -2.258529097     -0.000000000
