       3
Lattice="15.0 0.0 0.0 0.0 15.0 0.0 0.0 0.0 15.0" Properties=species:S:1:pos:R:3:forces:R:3 energy=        0.2732493585 pbc="T T T"
       O     0.0000000000     0.0000000000     0.0000000000      1.179960787     -4.342923311     -0.000000000
       H     0.9588300000     0.0000000000     0.0000000000      0.335583937     -1.036049751     -0.000000000
       H    -0.0638000000     0.8819100000     0.0000000000     -1.515544724      5.378973062     -0.000000000
