       3
Lattice="15.0 0.0 0.0 0.0 15.0 0.0 0.0 0.0 15.0" Properties=species:S:1:pos:R:3:forces:R:3 energy=        1.1436308164 pbc="T T T"
       O     0.0000000000     0.0000000000     0.0000000000      1.685756153      2.269946652     -0.000000000
       H     0.9588300000     0.0000000000     0.0000000000      1.711254567     -3.911979581     -0.000000000
       H     0.4013100000     0.9102000000     0.0000000000     -3.397010720      1.642032929     -0.000000000
