       3
Lattice="15.0 0.0 0.0 0.0 15.0 0.0 0.0 0.0 15.0" Properties=species:S:1:pos:R:3:forces:R:3 energy=        0.8567335382 pbc="T T T"
       O     0.0000000000     0.0000000000     0.0000000000     -3.810374627      2.783246197     -0.000000000
       H     0.9588300000     0.0000000000     0.0000000000     -0.182935362      1.390930700     -0.000000000
       H    -0.6063900000     0.9678300000     0.0000000000      3.993309989     -4.174176897     -0.000000000
