       3
Lattice="15.0 0.0 0.0 0.0 15.0 0.0 0.0 0.0 15.0" Properties=species:S:1:pos:R:3:forces:R:3 energy=        2.6843683466 pbc="T T T"
       O     0.0000000000     0.0000000000     0.0000000000     -6.341932640     -0.156838241     -0.000000000
       H     0.9588300000     0.0000000000     0.0000000000     -0.326571959      2.155837903     -0.000000000
       H    -1.1167100000     0.6447300000     0.0000000000      6.668504599     -1.998999662     -0.000000000
