       3
Lattice="15.0 0.0 0.0 0.0 15.0 0.0 0.0 0.0 15.0" Properties=species:S:1:pos:R:3:forces:R:3 energy=        0.6732865809 pbc="T T T"
       O     0.0000000000     0.0000000000     0.0000000000      1.328396042      5.432047084     -0.000000000
       H     0.9588300000     0.0000000000     0.0000000000      0.711164282     -1.708786307     -0.000000000
       H     0.1590900000     1.0937500000     0.0000000000     -2.039560376     -3.723260777     -0.000000000
