       3
Lattice="15.0 0.0 0.0 0.0 15.0 0.0 0.0 0.0 15.0" Properties=species:S:1:pos:R:3:forces:R:3 energy=        0.5402396465 pbc="T T T"
       O     0.0000000000     0.0000000000     0.0000000000      1.331020111      4.750465209     -0.000000000
       H     0.9588300000     0.0000000000     0.0000000000      0.740592680     -1.813228474     -0.000000000
       H     0.1537900000     1.0572900000     0.0000000000     -2.071612791     -2.937236734     -0.000000000
