       3
Lattice="15.0 0.0 0.0 0.0 15.0 0.0 0.0 0.0 15.0" Properties=species:S:1:pos:R:3:forces:R:3 energy=        2.4834707192 pbc="T T T"
       O     0.0000000000     0.0000000000     0.0000000000     -3.440955831    -17.285819026     -0.000000000
       H     0.9588300000     0.0000000000     0.0000000000      1.790019115     -3.893602304     -0.000000000
       H     0.2337600000     0.7375200000     0.0000000000      1.650936715     21.179421381     -0.000000000
