       3
Lattice="15.0 0.0 0.0 0.0 15.0 0.0 0.0 0.0 15.0" Properties=species:S:1:pos:R:3:forces:R:3 energy=        0.2505886006 pbc="T T T"
       O     0.0000000000     0.0000000000     0.0000000000     -0.840984638     -1.715005397     -0.000000000
       H     0.9588300000     0.0000000000     0.0000000000     -0.501281432      1.322181117     -0.000000000
       H    -0.5517800000     0.7830000000     0.0000000000      1.342266122      0.392824279     -0.000000000
