       3
Lattice="15.0 0.0 0.0 0.0 15.0 0.0 0.0 0.0 15.0" Properties=species:S:1:pos:R:3:forces:R:3 energy=        0.2872733884 pbc="T T T"
       O     0.0000000000     0.0000000000     0.0000000000     -0.011979341      4.387644689     -0.000000000
       H     0.9588300000     0.0000000000     0.0000000000      0.325078816     -0.648594194     -0.000000000
       H    -0.0770900000     1.0656300000     0.0000000000     -0.313099475     -3.739050495     -0.000000000
