       3
Lattice="15.0 0.0 0.0 0.0 15.0 0.0 0.0 0.0 15.0" Properties=species:S:1:pos:R:3:forces:R:3 energy=        0.1173989996 pbc="T T T"
       O     0.0000000000     0.0000000000     0.0000000000     -0.807686111      2.833304725     -0.000000000
       H     0.9588300000     0.0000000000     0.0000000000      0.066879361      0.052977194     -0.000000000
       H    -0.2399100000     1.0032900000     0.0000000000      0.740806801     -2.886281919     -0.000000000
