       3
Lattice="15.0 0.0 0.0 0.0 15.0 0.0 0.0 0.0 15.0" Properties=species:S:1:pos:R:3:forces:R:3 energy=        1.8534579157 pbc="T T T"
       O     0.0000000000     0.0000000000     0.0000000000     -3.628672470      4.025240174     -0.000000000
       H     0.9588300000     0.0000000000     0.0000000000      0.120237799      1.208838352     -0.000000000
       H    -0.5785500000     1.1934800000     0.0000000000      3.508434671     -5.234078526     -0.000000000
