       3
Lattice="15.0 0.0 0.0 0.0 15.0 0.0 0.0 0.0 15.0" Properties=species:S:1:pos:R:3:forces:R:3 energy=        3.0080350210 pbc="T T T"
       O     0.0000000000     0.0000000000     0.0000000000     -2.853372606    -25.074064417     -0.000000000
       H     0.9588300000     0.0000000000     0.0000000000      1.347514620     -3.144011170     -0.000000000
       H     0.1453800000     0.7223600000     0.0000000000      1.505858037     28.218075535     -0.000000000
