       3
Lattice="15.0 0.0 0.0 0.0 15.0 0.0 0.0 0.0 15.0" Properties=species:S:1:pos:R:3:forces:R:3 energy=        0.5944788804 pbc="T T T"
       O     0.0000000000     0.0000000000     0.0000000000     -0.696269257      5.356511534     -0.000000000
       H     0.9588300000     0.0000000000     0.0000000000      0.259975265     -0.251001853     -0.000000000
       H    -0.1439600000     1.1330000000     0.0000000000      0.436293941     -5.105509680     -0.000000000
