       3
Lattice="15.0 0.0 0.0 0.0 15.0 0.0 0.0 0.0 15.0" Properties=species:S:1:pos:R:3:forces:R:3 energy=        1.7464676930 pbc="T T T"
       O     0.0000000000     0.0000000000     0.0000000000     -2.834488101      4.761693530     -0.000000000
       H     0.9588300000     0.0000000000     0.0000000000      0.180862589      0.847145930     -0.000000000
       H    -0.4461200000     1.2490400000     0.0000000000      2.653625513     -5.608839460     -0.000000000
