       3
Lattice="15.0 0.0 0.0 0.0 15.0 0.0 0.0 0.0 15.0" Properties=species:S:1:pos:R:3:forces:R:3 energy=        0.0005835890 pbc="T T T"
       O     0.0000000000     0.0000000000     0.0000000000      0.059874902      0.012390255     -0.000000000
       H     0.9588300000     0.0000000000     0.0000000000      0.028181361     -0.071763020     -0.000000000
       H    -0.2227700000     0.9316200000     0.0000000000     -0.088056262      0.059372714     -0.000000000
