       3
Lattice="15.0 0.0 0.0 0.0 15.0 0.0 0.0 0.0 15.0" Properties=species:S:1:pos:R:3:forces:R:3 energy=        1.6069219232 pbc="T T T"
       O     0.0000000000     0.0000000000     0.0000000000      2.443720551      6.145473063     -0.000000000
       H     0.9588300000     0.0000000000     0.0000000000      1.078151533     -2.580711409     -0.000000000
       H     0.4295500000     1.1373800000     0.0000000000     -3.521872085     -3.564761654     -0.000000000
