       3
Lattice="15.0 0.0 0.0 0.0 15.0 0.0 0.0 0.0 15.0" Properties=species:S:1:pos:R:3:forces:R:3 energy=        0.3354473595 pbc="T T T"
       O     0.0015759500     0.0115995000     0.0000000000      3.471046751     -4.651027901     -0.000000000
       H     1.0267845800    -0.1087388300     0.0000000000     -3.289937336      1.317231433     -0.000000000
       H    -0.3304853200     0.8535945500     0.0000000000     -0.181109415      3.333796468     -0.000000000
