       3
Lattice="15.0 0.0 0.0 0.0 15.0 0.0 0.0 0.0 15.0" Properties=species:S:1:pos:R:3:forces:R:3 energy=        0.9096601357 pbc="T T T"
       O    -0.0037089900     0.0115192500     0.0000000000      4.729500681     -3.001382240     -0.000000000
       H     1.1459108400    -0.1358587200     0.0000000000     -5.639307407      1.792515606     -0.000000000
       H    -0.3657364200     0.8819886600     0.0000000000      0.909806726      1.208866634     -0.000000000
