       3
Lattice="15.0 0.0 0.0 0.0 15.0 0.0 0.0 0.0 15.0" Properties=species:S:1:pos:R:3:forces:R:3 energy=        0.3500048987 pbc="T T T"
       O    -0.0115382900    -0.0074474000     0.0000000000      3.432157049     -1.268858367     -0.000000000
       H     0.9908801900     0.1407779400     0.0000000000     -1.501248561     -1.756177057     -0.000000000
       H    -0.0864418300     0.9063644900     0.0000000000     -1.930908487      3.025035424     -0.000000000
