       3
Lattice="15.0 0.0 0.0 0.0 15.0 0.0 0.0 0.0 15.0" Properties=species:S:1:pos:R:3:forces:R:3 energy=        0.2409212877 pbc="T T T"
       O    -0.0062443200     0.0009941800     0.0000000000      3.981061402     -1.029687759     -0.000000000
       H     1.0584868300    -0.0035622800     0.0000000000     -3.933942212      0.164655581     -0.000000000
       H    -0.2380713900     0.9167317100     0.0000000000     -0.047119190      0.865032229     -0.000000000
