       3
Lattice="15.0 0.0 0.0 0.0 15.0 0.0 0.0 0.0 15.0" Properties=species:S:1:pos:R:3:forces:R:3 energy=        0.3983418632 pbc="T T T"
       O    -0.0001159500     0.0098843900     0.0000000000      3.638485038     -2.933648964     -0.000000000
       H     1.0606085100    -0.1087487400     0.0000000000     -4.189688267      1.406759601     -0.000000000
       H    -0.3374576300     0.8808246200     0.0000000000      0.551203229      1.526889362     -0.000000000
