       3
Lattice="15.0 0.0 0.0 0.0 15.0 0.0 0.0 0.0 15.0" Properties=species:S:1:pos:R:3:forces:R:3 energy=        0.3921216969 pbc="T T T"
       O    -0.0048162700     0.0021735900     0.0000000000      3.716294935      0.117227036     -0.000000000
       H     1.0856282300    -0.0459537700     0.0000000000     -4.582764977      0.728299304     -0.000000000
       H    -0.2878780600     0.9404054600     0.0000000000      0.866470042     -0.845526340     -0.000000000
