       3
Lattice="15.0 0.0 0.0 0.0 15.0 0.0 0.0 0.0 15.0" Properties=species:S:1:pos:R:3:forces:R:3 energy=        0.5681002417 pbc="T T T"
       O    -0.0079086400     0.0015085600     0.0000000000      4.488122111     -0.012673179     -0.000000000
       H     1.1225230000    -0.0343975500     0.0000000000     -5.210900586      0.621067540     -0.000000000
       H    -0.2756943400     0.9394038600     0.0000000000      0.722778475     -0.608394360     -0.000000000
