       3
Lattice="15.0 0.0 0.0 0.0 15.0 0.0 0.0 0.0 15.0" Properties=species:S:1:pos:R:3:forces:R:3 energy=        0.0508285588 pbc="T T T"
       O    -0.0028249900    -0.0025334700     0.0000000000      0.265065897     -0.719837491     -0.000000000
       H     0.9472929800     0.0517581200     0.0000000000      0.625276900     -0.581996523     -0.000000000
       H    -0.1811433000     0.9173969900     0.0000000000     -0.890342797      1.301834014     -0.000000000
