       3
Lattice="15.0 0.0 0.0 0.0 15.0 0.0 0.0 0.0 15.0" Properties=species:S:1:pos:R:3:forces:R:3 energy=        1.1136004995 pbc="T T T"
       O     0.0035095100     0.0189307600     0.0000000000      6.732274569    -14.787311326     -0.000000000
       H     0.9870777400    -0.1248353600     0.0000000000     -2.118443246      1.315691907     -0.000000000
       H    -0.3214659600     0.7533385000     0.0000000000     -4.613831374     13.471619418     -0.000000000
