       3
Lattice="15.0 0.0 0.0 0.0 15.0 0.0 0.0 0.0 15.0" Properties=species:S:1:pos:R:3:forces:R:3 energy=        0.1527072370 pbc="T T T"
       O     0.0040388400     0.0053146200     0.0000000000     -2.294488974     -3.104022064     -0.000000000
       H     0.9120854000    -0.0302213600     0.0000000000      3.005444842      0.067424898     -0.000000000
       H    -0.2548718900     0.8748217900     0.0000000000     -0.710955868      3.036597166     -0.000000000
