       3
Lattice="15.0 0.0 0.0 0.0 15.0 0.0 0.0 0.0 15.0" Properties=species:S:1:pos:R:3:forces:R:3 energy=        0.4513873119 pbc="T T T"
       O    -0.0148034900    -0.0084580400     0.0000000000      5.006757521      0.563889521     -0.000000000
       H     1.0641548600     0.1273032500     0.0000000000     -3.764930614     -1.481445350     -0.000000000
       H    -0.1078957500     0.9358791800     0.0000000000     -1.241826907      0.917555829     -0.000000000
