       3
Lattice="15.0 0.0 0.0 0.0 15.0 0.0 0.0 0.0 15.0" Properties=species:S:1:pos:R:3:forces:R:3 energy=        0.6700808782 pbc="T T T"
       O     0.0030675800     0.0166899100     0.0000000000      5.106622249     -9.659291421     -0.000000000
       H     1.0092370900    -0.1295354000     0.0000000000     -2.893002323      1.474386691     -0.000000000
       H    -0.3366116500     0.7936025800     0.0000000000     -2.213619874      8.184904678     -0.000000000
