       3
Lattice="15.0 0.0 0.0 0.0 15.0 0.0 0.0 0.0 15.0" Properties=species:S:1:pos:R:3:forces:R:3 energy=        0.6570119162 pbc="T T T"
       O    -0.0075003600     0.0069525300     0.0000000000      6.157446799     -8.058834432     -0.000000000
       H     1.0680436900    -0.0142786200     0.0000000000     -4.290460389      0.249737281     -0.000000000
       H    -0.2276943600     0.8328848000     0.0000000000     -1.866986410      7.809097150     -0.000000000
