       3
Lattice="15.0 0.0 0.0 0.0 15.0 0.0 0.0 0.0 15.0" Properties=species:S:1:pos:R:3:forces:R:3 energy=        0.3043356404 pbc="T T T"
       O    -0.0005023400    -0.0109051000     0.0000000000     -1.742224496      4.301328910     -0.000000000
       H     0.9367919700     0.0576669500     0.0000000000      1.353921658     -0.338882818     -0.000000000
       H    -0.2075041400     1.0443520900     0.0000000000      0.388302838     -3.962446143     -0.000000000
