       3
Lattice="15.0 0.0 0.0 0.0 15.0 0.0 0.0 0.0 15.0" Properties=species:S:1:pos:R:3:forces:R:3 energy=        0.3739085556 pbc="T T T"
       O     0.0034062300     0.0000763900     0.0000000000     -6.180935586     -1.885051092     -0.000000000
       H     0.8656562700     0.0301337500     0.0000000000      7.286671830     -0.369331327     -0.000000000
       H    -0.1984012100     0.8976007100     0.0000000000     -1.105736295      2.254382368     -0.000000000
