       3
Lattice="15.0 0.0 0.0 0.0 15.0 0.0 0.0 0.0 15.0" Properties=species:S:1:pos:R:3:forces:R:3 energy=        0.3109442031 pbc="T T T"
       O    -0.0078096100    -0.0115928100     0.0000000000      2.563594693      4.047579934     -0.000000000
       H     1.0149860000     0.0891691000     0.0000000000     -2.467624572     -0.846935511     -0.000000000
       H    -0.1697257500     1.0237644800     0.0000000000     -0.095970122     -3.200644423     -0.000000000
