       3
Lattice="15.0 0.0 0.0 0.0 15.0 0.0 0.0 0.0 15.0" Properties=species:S:1:pos:R:3:forces:R:3 energy=        0.5713650638 pbc="T T T"
       O    -0.0019084300    -0.0158083200     0.0000000000     -0.862755259      5.385604351     -0.000000000
       H     0.9512675000     0.0792049200     0.0000000000      0.423124436     -0.463977690     -0.000000000
       H    -0.1996634300     1.1006317900     0.0000000000      0.439630823     -4.921626609     -0.000000000
