       3
Lattice="15.0 0.0 0.0 0.0 15.0 0.0 0.0 0.0 15.0" Properties=species:S:1:pos:R:3:forces:R:3 energy=        0.1573606860 pbc="T T T"
       O     0.0078195300     0.0108793300     0.0000000000     -1.055387078     -2.278785543     -0.000000000
       H     0.9444065400    -0.1194469900     0.0000000000      0.446309832      0.989160829     -0.000000000
       H    -0.3471977000     0.8757320300     0.0000000000      0.609077246      1.289624714     -0.000000000
