       3
Lattice="15.0 0.0 0.0 0.0 15.0 0.0 0.0 0.0 15.0" Properties=species:S:1:pos:R:3:forces:R:3 energy=        0.6700234431 pbc="T T T"
       O     0.0079868000     0.0008078500     0.0000000000     -1.360785478      3.109582591     -0.000000000
       H     0.9904093100    -0.1254956500     0.0000000000     -1.492024262      1.371970862     -0.000000000
       H    -0.3958552300     1.0416227200     0.0000000000      2.852809740     -4.481553454     -0.000000000
