       3
Lattice="15.0 0.0 0.0 0.0 15.0 0.0 0.0 0.0 15.0" Properties=species:S:1:pos:R:3:forces:R:3 energy=        0.4339269002 pbc="T T T"
       O     0.0034069600     0.0116179900     0.0000000000      1.804862101     -8.421143559     -0.000000000
       H     0.9469640000    -0.0693799000     0.0000000000      0.326992026      0.527727812     -0.000000000
       H    -0.2797231500     0.8139415100     0.0000000000     -2.131854127      7.893415747     -0.000000000
