       3
Lattice="15.0 0.0 0.0 0.0 15.0 0.0 0.0 0.0 15.0" Properties=species:S:1:pos:R:3:forces:R:3 energy=        0.2533114508 pbc="T T T"
       O     0.0080246500     0.0104648400     0.0000000000     -2.808078694     -3.803383897     -0.000000000
       H     0.9055369400    -0.0904856800     0.0000000000      3.253876003      0.420134396     -0.000000000
       H    -0.3115827600     0.8533486600     0.0000000000     -0.445797308      3.383249501     -0.000000000
