       3
Lattice="15.0 0.0 0.0 0.0 15.0 0.0 0.0 0.0 15.0" Properties=species:S:1:pos:R:3:forces:R:3 energy=        0.6403199622 pbc="T T T"
       O     0.0119440800     0.0005143700     0.0000000000    -10.268224170      3.361153739     -0.000000000
       H     0.8583799700    -0.0708164900     0.0000000000      8.456468116      0.045908303     -0.000000000
       H    -0.3266293600     0.9916005000     0.0000000000      1.811756054     -3.407062041     -0.000000000
