       3
Lattice="15.0 0.0 0.0 0.0 15.0 0.0 0.0 0.0 15.0" Properties=species:S:1:pos:R:3:forces:R:3 energy=        0.3700810184 pbc="T T T"
       O    -0.0029498900    -0.0094060700     0.0000000000      1.226325307      4.256360911     -0.000000000
       H     1.0071068000     0.0285059800     0.0000000000     -2.130774006     -0.102291799     -0.000000000
       H    -0.2389753700     1.0497227500     0.0000000000      0.904448647     -4.154069113     -0.000000000
