       3
Lattice="15.0 0.0 0.0 0.0 15.0 0.0 0.0 0.0 15.0" Properties=species:S:1:pos:R:3:forces:R:3 energy=        0.7508879897 pbc="T T T"
       O     0.0117990700    -0.0015679400     0.0000000000     -6.022146185      4.093736863     -0.000000000
       H     0.9124731700    -0.1044726700     0.0000000000      3.306583951      0.728506484     -0.000000000
       H    -0.3784219300     1.0583049000     0.0000000000      2.715562234     -4.822243295     -0.000000000
