       3
Lattice="15.0 0.0 0.0 0.0 15.0 0.0 0.0 0.0 15.0" Properties=species:S:1:pos:R:3:forces:R:3 energy=        0.2726182176 pbc="T T T"
       O    -0.0110325500    -0.0063839400     0.0000000000      3.836906264     -0.673479245     -0.000000000
       H     1.0135639900     0.1135797600     0.0000000000     -2.381976457     -1.377251551     -0.000000000
       H    -0.1171527900     0.9166849900     0.0000000000     -1.454929807      2.050730796     -0.000000000
