       3
Lattice="15.0 0.0 0.0 0.0 15.0 0.0 0.0 0.0 15.0" Properties=species:S:1:pos:R:3:forces:R:3 energy=        0.3412209462 pbc="T T T"
       O    -0.0074796000    -0.0147292900     0.0000000000      1.444396970      4.527133375     -0.000000000
       H     0.9720278500     0.1283431300     0.0000000000     -0.807719227     -1.220288920     -0.000000000
       H    -0.1320039600     1.0343683300     0.0000000000     -0.636677691     -3.306844404     -0.000000000
