       3
Lattice="15.0 0.0 0.0 0.0 15.0 0.0 0.0 0.0 15.0" Properties=species:S:1:pos:R:3:forces:R:3 energy=        0.6495739668 pbc="T T T"
       O    -0.0015032300    -0.0168753200     0.0000000000     -4.587930892      4.484602680     -0.000000000
       H     0.8750534600     0.1367553800     0.0000000000      5.376154720     -0.595662817     -0.000000000
       H    -0.1298786300     1.0600147300     0.0000000000     -0.788223828     -3.888939915     -0.000000000
