       3
Lattice="15.0 0.0 0.0 0.0 15.0 0.0 0.0 0.0 15.0" Properties=species:S:1:pos:R:3:forces:R:3 energy=        0.7762182172 pbc="T T T"
       O    -0.0102925400     0.0008665400     0.0000000000      4.803243554     -9.388938562     -0.000000000
       H     1.0041965800     0.0888877900     0.0000000000     -2.073628486     -1.254777559     -0.000000000
       H    -0.1195306100     0.8263066700     0.0000000000     -2.729615068     10.643716121     -0.000000000
