       3
Lattice="15.0 0.0 0.0 0.0 15.0 0.0 0.0 0.0 15.0" Properties=species:S:1:pos:R:3:forces:R:3 energy=        0.7284148978 pbc="T T T"
       O    -0.0071604400     0.0014225000     0.0000000000      3.061586552     -9.685022468     -0.000000000
       H     0.9597172200     0.0830752400     0.0000000000     -0.104154101     -1.198902936     -0.000000000
       H    -0.1247601100     0.8232955600     0.0000000000     -2.957432451     10.883925455     -0.000000000
