       3
Lattice="15.0 0.0 0.0 0.0 15.0 0.0 0.0 0.0 15.0" Properties=species:S:1:pos:R:3:forces:R:3 energy=        0.1675125330 pbc="T T T"
       O    -0.0010693400    -0.0084401800     0.0000000000     -1.110828676      3.471259587     -0.000000000
       H     0.9445148600     0.0508907000     0.0000000000      0.870117771     -0.360552137     -0.000000000
       H    -0.2062285700     1.0120082800     0.0000000000      0.240710905     -3.110707450     -0.000000000
