       3
Lattice="15.0 0.0 0.0 0.0 15.0 0.0 0.0 0.0 15.0" Properties=species:S:1:pos:R:3:forces:R:3 energy=        0.4313940725 pbc="T T T"
       O     0.0113485300     0.0145372600     0.0000000000     -3.640128025     -4.558904100     -0.000000000
       H     0.8890286800    -0.1314621800     0.0000000000      4.232456686      0.433902043     -0.000000000
       H    -0.3478279300     0.8296930000     0.0000000000     -0.592328660      4.125002058     -0.000000000
