       3
Lattice="15.0 0.0 0.0 0.0 15.0 0.0 0.0 0.0 15.0" Properties=species:S:1:pos:R:3:forces:R:3 energy=        0.5070046528 pbc="T T T"
       O    -0.0112626200    -0.0025618900     0.0000000000      4.393403860     -5.214318663     -0.000000000
       H     1.0099834400     0.1071523400     0.0000000000     -2.245358203     -1.419767693     -0.000000000
       H    -0.1099210600     0.8624537000     0.0000000000     -2.148045708      6.634086356     -0.000000000
