       3
Lattice="15.0 0.0 0.0 0.0 15.0 0.0 0.0 0.0 15.0" Properties=species:S:1:pos:R:3:forces:R:3 energy=        0.0903155044 pbc="T T T"
       O    -0.0006717500     0.0019827700     0.0000000000      1.758258983      0.139369747     -0.000000000
       H     1.0098963000    -0.0376219700     0.0000000000     -2.406011963      0.513332867     -0.000000000
       H    -0.2779225100     0.9351018200     0.0000000000      0.647752980     -0.652702665     -0.000000000
