       3
Lattice="15.0 0.0 0.0 0.0 15.0 0.0 0.0 0.0 15.0" Properties=species:S:1:pos:R:3:forces:R:3 energy=        0.5400539342 pbc="T T T"
       O     0.0042285500    -0.0102931500     0.0000000000     -6.086315345      4.373295818     -0.000000000
       H     0.8871452600     0.0359870800     0.0000000000      5.346733521     -0.000817303     -0.000000000
       H    -0.2329406500     1.0563198400     0.0000000000      0.739581824     -4.372478516     -0.000000000
