       3
Lattice="15.0 0.0 0.0 0.0 15.0 0.0 0.0 0.0 15.0" Properties=species:S:1:pos:R:3:forces:R:3 energy=        0.1602482930 pbc="T T T"
       O    -0.0036993100    -0.0098453800     0.0000000000     -0.003265200      3.377006963     -0.000000000
       H     0.9537368100     0.0805690800     0.0000000000      0.242184045     -0.704785989     -0.000000000
       H    -0.1737102800     1.0046313400     0.0000000000     -0.238918846     -2.672220974     -0.000000000
