       3
Lattice="15.0 0.0 0.0 0.0 15.0 0.0 0.0 0.0 15.0" Properties=species:S:1:pos:R:3:forces:R:3 energy=        0.1240373805 pbc="T T T"
       O    -0.0024488200    -0.0068915700     0.0000000000     -1.541469993      1.365421128     -0.000000000
       H     0.9188999100     0.0829023800     0.0000000000      2.396301313     -0.761692654     -0.000000000
       H    -0.1587194500     0.9554186600     0.0000000000     -0.854831270     -0.603728474     -0.000000000
