       3
Lattice="15.0 0.0 0.0 0.0 15.0 0.0 0.0 0.0 15.0" Properties=species:S:1:pos:R:3:forces:R:3 energy=        0.0886423661 pbc="T T T"
       O    -0.0005380500    -0.0017355500     0.0000000000      0.830847288      1.791383035     -0.000000000
       H     0.9928373100    -0.0143066200     0.0000000000     -1.628455133      0.259614590     -0.000000000
       H    -0.2629847600     0.9707986700     0.0000000000      0.797607794     -2.050997625     -0.000000000
