       3
Lattice="15.0 0.0 0.0 0.0 15.0 0.0 0.0 0.0 15.0" Properties=species:S:1:pos:R:3:forces:R:3 energy=        0.8269524504 pbc="T T T"
       O     0.0079805400    -0.0060903200     0.0000000000    -12.250843892      3.201225544     -0.000000000
       H     0.8319681900     0.0193508400     0.0000000000     11.704783231      0.061117414     -0.000000000
       H    -0.2373108500     1.0062539000     0.0000000000      0.546060660     -3.262342958     -0.000000000
