       3
Lattice="15.0 0.0 0.0 0.0 15.0 0.0 0.0 0.0 15.0" Properties=species:S:1:pos:R:3:forces:R:3 energy=        0.7960670838 pbc="T T T"
       O    -0.0065443700     0.0090129200     0.0000000000      5.459622127     -3.866884159     -0.000000000
       H     1.1395671600    -0.0880921000     0.0000000000     -5.571152675      1.257167555     -0.000000000
       H    -0.3143919600     0.8739991000     0.0000000000      0.111530548      2.609716603     -0.000000000
