       3
Lattice="15.0 0.0 0.0 0.0 15.0 0.0 0.0 0.0 15.0" Properties=species:S:1:pos:R:3:forces:R:3 energy=        0.0979824512 pbc="T T T"
       O     0.0030448500    -0.0025259100     0.0000000000     -2.672150268      2.171300164     -0.000000000
       H     0.9287377700    -0.0061970900     0.0000000000      1.981719115      0.089390717     -0.000000000
       H    -0.2557482700     0.9752324600     0.0000000000      0.690431205     -2.260690933     -0.000000000
