       3
Lattice="15.0 0.0 0.0 0.0 15.0 0.0 0.0 0.0 15.0" Properties=species:S:1:pos:R:3:forces:R:3 energy=        0.4136407004 pbc="T T T"
       O     0.0039762000    -0.0014084900     0.0000000000     -7.421062581     -0.677169346     -0.000000000
       H     0.8569770900     0.0345278900     0.0000000000      8.256191581     -0.315237348     -0.000000000
       H    -0.1987677300     0.9167727900     0.0000000000     -0.835129000      0.992406694     -0.000000000
