       3
Lattice="15.0 0.0 0.0 0.0 15.0 0.0 0.0 0.0 15.0" Properties=species:S:1:pos:R:3:forces:R:3 energy=        0.5396982569 pbc="T T T"
       O    -0.0022171300    -0.0164656400     0.0000000000     -1.728628445      5.234573823     -0.000000000
       H     0.9268560800     0.1040365500     0.0000000000      1.754793648     -0.635714041     -0.000000000
       H    -0.1703520900     1.0862319900     0.0000000000     -0.026165152     -4.598859782     -0.000000000
