       3
Lattice="15.0 0.0 0.0 0.0 15.0 0.0 0.0 0.0 15.0" Properties=species:S:1:pos:R:3:forces:R:3 energy=        0.2147380812 pbc="T T T"
       O    -0.0064158700    -0.0063166500     0.0000000000      0.666282004     -0.946902311     -0.000000000
       H     0.9373258100     0.1156725700     0.0000000000      1.096670993     -1.317920797     -0.000000000
       H    -0.1141845800     0.9135240300     0.0000000000     -1.762952997      2.264823109     -0.000000000
