       3
Lattice="15.0 0.0 0.0 0.0 15.0 0.0 0.0 0.0 15.0" Properties=species:S:1:pos:R:3:forces:R:3 energy=        0.7810093477 pbc="T T T"
       O     0.0032250400    -0.0119015700     0.0000000000     -1.672732276      5.053141632     -0.000000000
       H     0.9652947700    -0.0072625300     0.0000000000     -0.037302919      0.346165574     -0.000000000
       H    -0.2951648600     1.1250967900     0.0000000000      1.710035195     -5.399307206     -0.000000000
