       3
Lattice="15.0 0.0 0.0 0.0 15.0 0.0 0.0 0.0 15.0" Properties=species:S:1:pos:R:3:forces:R:3 energy=        0.1506571992 pbc="T T T"
       O     0.0036609900     0.0088795100     0.0000000000      1.348185010     -2.112856391     -0.000000000
       H     0.9942346700    -0.1005884800     0.0000000000     -1.979762196      1.116373211     -0.000000000
       H    -0.3310262600     0.8886121800     0.0000000000      0.631577186      0.996483231     -0.000000000
