       3
Lattice="15.0 0.0 0.0 0.0 15.0 0.0 0.0 0.0 15.0" Properties=species:S:1:pos:R:3:forces:R:3 energy=        0.8168375402 pbc="T T T"
       O     0.0067657100    -0.0034610500     0.0000000000    -12.625618658      0.964831908     -0.000000000
       H     0.8208459400     0.0346742000     0.0000000000     13.015441328     -0.078989520     -0.000000000
       H    -0.2069081200     0.9492018500     0.0000000000     -0.389822669     -0.885842388     -0.000000000
