       3
Lattice="15.0 0.0 0.0 0.0 15.0 0.0 0.0 0.0 15.0" Properties=species:S:1:pos:R:3:forces:R:3 energy=        0.5564567890 pbc="T T T"
       O    -0.0106273100     0.0015479500     0.0000000000      5.439047532     -2.200310501     -0.000000000
       H     1.1175952200     0.0028097000     0.0000000000     -5.122037922      0.138021922     -0.000000000
       H    -0.2276183900     0.9015711700     0.0000000000     -0.317009662      2.062288527     -0.000000000
