       3
Lattice="15.0 0.0 0.0 0.0 15.0 0.0 0.0 0.0 15.0" Properties=species:S:1:pos:R:3:forces:R:3 energy=        0.4872583541 pbc="T T T"
       O     0.0020021900    -0.0120373700     0.0000000000     -3.904629822      4.681100669     -0.000000000
       H     0.9103547600     0.0508979500     0.0000000000      3.282222891     -0.144597316     -0.000000000
       H    -0.2208158800     1.0690910600     0.0000000000      0.622406931     -4.536503353     -0.000000000
