       3
Lattice="15.0 0.0 0.0 0.0 15.0 0.0 0.0 0.0 15.0" Properties=species:S:1:pos:R:3:forces:R:3 energy=        0.5424956255 pbc="T T T"
       O     0.0070831300    -0.0040052900     0.0000000000     -9.665438520      2.619640089     -0.000000000
       H     0.8518278200     0.0084191100     0.0000000000      9.157055286     -0.035474144     -0.000000000
       H    -0.2429282900     0.9840947600     0.0000000000      0.508383234     -2.584165945     -0.000000000
