       3
Lattice="15.0 0.0 0.0 0.0 15.0 0.0 0.0 0.0 15.0" Properties=species:S:1:pos:R:3:forces:R:3 energy=        0.1848570487 pbc="T T T"
       O     0.0094995200     0.0103611300     0.0000000000     -2.216432354     -0.852205092     -0.000000000
       H     0.9368151100    -0.1326234400     0.0000000000      0.911843298      1.033490371     -0.000000000
       H    -0.3662693000     0.8971327700     0.0000000000      1.304589056     -0.181285278     -0.000000000
