       3
Lattice="15.0 0.0 0.0 0.0 15.0 0.0 0.0 0.0 15.0" Properties=species:S:1:pos:R:3:forces:R:3 energy=        0.4106150500 pbc="T T T"
       O    -0.0046403100    -0.0155194900     0.0000000000     -0.129282584      4.957256614     -0.000000000
       H     0.9480084500     0.1144932700     0.0000000000      0.431513589     -0.912643117     -0.000000000
       H    -0.1530465200     1.0607593000     0.0000000000     -0.302231057     -4.044613497     -0.000000000
