       3
Lattice="15.0 0.0 0.0 0.0 15.0 0.0 0.0 0.0 15.0" Properties=species:S:1:pos:R:3:forces:R:3 energy=        0.4561849677 pbc="T T T"
       O     0.0076502800    -0.0038234500     0.0000000000     -5.024721724      3.876768769     -0.000000000
       H     0.9149466300    -0.0481566500     0.0000000000      3.172249815      0.437303665     -0.000000000
       H    -0.3150496500     1.0377852600     0.0000000000      1.852471909     -4.314072434     -0.000000000
