       3
Lattice="15.0 0.0 0.0 0.0 15.0 0.0 0.0 0.0 15.0" Properties=species:S:1:pos:R:3:forces:R:3 energy=        0.5509629108 pbc="T T T"
       O    -0.0014147500    -0.0120697500     0.0000000000      0.365581526      4.960187981     -0.000000000
       H     0.9920881200     0.0296424500     0.0000000000     -1.471139901     -0.053779944     -0.000000000
       H    -0.2483204800     1.0908608700     0.0000000000      1.105558426     -4.906408037     -0.000000000
