       3
Lattice="15.0 0.0 0.0 0.0 15.0 0.0 0.0 0.0 15.0" Properties=species:S:1:pos:R:3:forces:R:3 energy=        0.0668130712 pbc="T T T"
       O     0.0026835600     0.0033995800     0.0000000000      0.206406819      0.313509309     -0.000000000
       H     0.9805108000    -0.0606185400     0.0000000000     -1.167806046      0.682784792     -0.000000000
       H    -0.3017887300     0.9356124900     0.0000000000      0.961399175     -0.996294101     -0.000000000
