       3
Lattice="15.0 0.0 0.0 0.0 15.0 0.0 0.0 0.0 15.0" Properties=species:S:1:pos:R:3:forces:R:3 energy=        0.5474782398 pbc="T T T"
       O     0.0017172900    -0.0127206400     0.0000000000     -2.786569915      4.988854561     -0.000000000
       H     0.9306134100     0.0408307500     0.0000000000      1.883101733     -0.078462444     -0.000000000
       H    -0.2365531500     1.0900023500     0.0000000000      0.903468182     -4.910392117     -0.000000000
