       3
Lattice="15.0 0.0 0.0 0.0 15.0 0.0 0.0 0.0 15.0" Properties=species:S:1:pos:R:3:forces:R:3 energy=        0.5621651799 pbc="T T T"
       O    -0.0037325800     0.0101172400     0.0000000000      5.409293118     -5.993923532     -0.000000000
       H     1.0766720900    -0.0773848100     0.0000000000     -4.584341836      1.066678083     -0.000000000
       H    -0.2961218000     0.8457650800     0.0000000000     -0.824951283      4.927245449     -0.000000000
