       3
Lattice="15.0 0.0 0.0 0.0 15.0 0.0 0.0 0.0 15.0" Properties=species:S:1:pos:R:3:forces:R:3 energy=        0.0682460527 pbc="T T T"
       O     0.0021400000     0.0060353400     0.0000000000      1.044005673     -1.781973513     -0.000000000
       H     0.9821111900    -0.0634677500     0.0000000000     -1.333808474      0.689083998     -0.000000000
       H    -0.2947626200     0.8966302700     0.0000000000      0.289802801      1.092889515     -0.000000000
