       3
Lattice="15.0 0.0 0.0 0.0 15.0 0.0 0.0 0.0 15.0" Properties=species:S:1:pos:R:3:forces:R:3 energy=        0.2387533348 pbc="T T T"
       O    -0.0042957400    -0.0021783000     0.0000000000      2.790738652      1.715858181     -0.000000000
       H     1.0471446100    -0.0087726300     0.0000000000     -3.565842392      0.263720078     -0.000000000
       H    -0.2576546100     0.9722916100     0.0000000000      0.775103740     -1.979578259     -0.000000000
