       3
Lattice="15.0 0.0 0.0 0.0 15.0 0.0 0.0 0.0 15.0" Properties=species:S:1:pos:R:3:forces:R:3 energy=        0.3231091076 pbc="T T T"
       O    -0.0060154100    -0.0049122700     0.0000000000      3.089196202      2.590624559     -0.000000000
       H     1.0576844100     0.0128508600     0.0000000000     -3.811332312      0.034799435     -0.000000000
       H    -0.2409014400     0.9940583000     0.0000000000      0.722136110     -2.625423943     -0.000000000
