       3
Lattice="15.0 0.0 0.0 0.0 15.0 0.0 0.0 0.0 15.0" Properties=species:S:1:pos:R:3:forces:R:3 energy=        0.1495679655 pbc="T T T"
       O    -0.0049135400    -0.0016201300     0.0000000000      2.943846015      0.750568616     -0.000000000
       H     1.0347672500     0.0066936400     0.0000000000     -3.210070401      0.041775921     -0.000000000
       H    -0.2354719800     0.9479667400     0.0000000000      0.266224334     -0.792344589     -0.000000000
