       3
Lattice="15.0 0.0 0.0 0.0 15.0 0.0 0.0 0.0 15.0" Properties=species:S:1:pos:R:3:forces:R:3 energy=        0.1920845506 pbc="T T T"
       O     0.0080709700     0.0094646100     0.0000000000     -3.022208854     -2.636699161     -0.000000000
       H     0.9094788400    -0.0909658400     0.0000000000      2.991713448      0.473948433     -0.000000000
       H    -0.3162598400     0.8697032300     0.0000000000      0.030495355      2.162750728     -0.000000000
