       3
Lattice="15.0 0.0 0.0 0.0 15.0 0.0 0.0 0.0 15.0" Properties=species:S:1:pos:R:3:forces:R:3 energy=        0.4132039767 pbc="T T T"
       O     0.0076802600    -0.0033365800     0.0000000000     -6.755017324      3.452393388     -0.000000000
       H     0.8887570100    -0.0297233200     0.0000000000      5.369566676      0.202937371     -0.000000000
       H    -0.2893352800     1.0116247300     0.0000000000      1.385450648     -3.655330760     -0.000000000
