       3
Lattice="15.0 0.0 0.0 0.0 15.0 0.0 0.0 0.0 15.0" Properties=species:S:1:pos:R:3:forces:R:3 energy=        0.3872056661 pbc="T T T"
       O    -0.0042725600    -0.0119005900     0.0000000000      1.273942880      4.650419732     -0.000000000
       H     0.9980605900     0.0596913300     0.0000000000     -1.796887152     -0.431526702     -0.000000000
       H    -0.2089366100     1.0581270600     0.0000000000      0.522944272     -4.218893030     -0.000000000
