       3
Lattice="15.0 0.0 0.0 0.0 15.0 0.0 0.0 0.0 15.0" Properties=species:S:1:pos:R:3:forces:R:3 energy=        0.8652585906 pbc="T T T"
       O    -0.0198912700    -0.0083150300     0.0000000000      6.066402245      0.617641646     -0.000000000
       H     1.1535284100     0.1201537300     0.0000000000     -5.176700372     -1.235478747     -0.000000000
       H    -0.1165227500     0.9407593800     0.0000000000     -0.889701924      0.617837153     -0.000000000
