       3
Lattice="15.0 0.0 0.0 0.0 15.0 0.0 0.0 0.0 15.0" Properties=species:S:1:pos:R:3:forces:R:3 energy=        0.2539991914 pbc="T T T"
       O    -0.0058461400    -0.0036207000     0.0000000000      3.129092131      1.915719174     -0.000000000
       H     1.0520955400     0.0110349700     0.0000000000     -3.682993683      0.033758240     -0.000000000
       H    -0.2379990200     0.9753759300     0.0000000000      0.553901552     -1.949477415     -0.000000000
