       3
Lattice="15.0 0.0 0.0 0.0 15.0 0.0 0.0 0.0 15.0" Properties=species:S:1:pos:R:3:forces:R:3 energy=        0.5080461986 pbc="T T T"
       O     0.0060002100    -0.0050024600     0.0000000000     -2.767436013      4.066491847     -0.000000000
       H     0.9506500600    -0.0518307000     0.0000000000      0.735633277      0.615999636     -0.000000000
       H    -0.3245653100     1.0601711300     0.0000000000      2.031802737     -4.682491483     -0.000000000
