       3
Lattice="15.0 0.0 0.0 0.0 15.0 0.0 0.0 0.0 15.0" Properties=species:S:1:pos:R:3:forces:R:3 energy=        0.3551466751 pbc="T T T"
       O    -0.0085510600    -0.0024014400     0.0000000000      4.213056777      0.818706893     -0.000000000
       H     1.0840722200     0.0156978600     0.0000000000     -4.460312018     -0.018144181     -0.000000000
       H    -0.2270466000     0.9513625900     0.0000000000      0.247255240     -0.800562712     -0.000000000
