       3
Lattice="15.0 0.0 0.0 0.0 15.0 0.0 0.0 0.0 15.0" Properties=species:S:1:pos:R:3:forces:R:3 energy=        0.3433077738 pbc="T T T"
       O     0.0111700900     0.0106823700     0.0000000000     -5.764869757     -1.920121573     -0.000000000
       H     0.8798153400    -0.1099621100     0.0000000000      5.443512769      0.234787287     -0.000000000
       H    -0.3357821400     0.8693728100     0.0000000000      0.321356988      1.685334287     -0.000000000
