       3
Lattice="15.0 0.0 0.0 0.0 15.0 0.0 0.0 0.0 15.0" Properties=species:S:1:pos:R:3:forces:R:3 energy=        0.8056397718 pbc="T T T"
       O    -0.0054620700     0.0076586600     0.0000000000      4.537780267     -1.617800476     -0.000000000
       H     1.1456056800    -0.1018521700     0.0000000000     -5.589205221      1.414079690     -0.000000000
       H    -0.3376076900     0.9092523100     0.0000000000      1.051424955      0.203720735     -0.000000000
