       3
Lattice="15.0 0.0 0.0 0.0 15.0 0.0 0.0 0.0 15.0" Properties=species:S:1:pos:R:3:forces:R:3 energy=        0.3776101831 pbc="T T T"
       O     0.0103298200     0.0020059700     0.0000000000     -6.144039621      2.771973344     -0.000000000
       H     0.9001495000    -0.0880573400     0.0000000000      4.156335901      0.483609615     -0.000000000
       H    -0.3427798000     0.9851687600     0.0000000000      1.987703720     -3.255582908     -0.000000000
