       3
Lattice="15.0 0.0 0.0 0.0 15.0 0.0 0.0 0.0 15.0" Properties=species:S:1:pos:R:3:forces:R:3 energy=        0.5485555494 pbc="T T T"
       O    -0.0078079200    -0.0047119000     0.0000000000      0.826274425     -4.814329127     -0.000000000
       H     0.9250373100     0.1373139300     0.0000000000      1.844135772     -1.709467546     -0.000000000
       H    -0.0798027200     0.8664138200     0.0000000000     -2.670410196      6.523796725     -0.000000000
