       3
Lattice="15.0 0.0 0.0 0.0 15.0 0.0 0.0 0.0 15.0" Properties=species:S:1:pos:R:3:forces:R:3 energy=        0.6566482360 pbc="T T T"
       O     0.0151959300     0.0108046100     0.0000000000    -10.541000398      0.340742704     -0.000000000
       H     0.8419476300    -0.1305565100     0.0000000000      9.407242562     -0.385229237     -0.000000000
       H    -0.3618078900     0.8880270800     0.0000000000      1.133757836      0.044486482     -0.000000000
