       3
Lattice="15.0 0.0 0.0 0.0 15.0 0.0 0.0 0.0 15.0" Properties=species:S:1:pos:R:3:forces:R:3 energy=        0.4061818935 pbc="T T T"
       O    -0.0086828100     0.0015550000     0.0000000000      4.863594675     -5.379139772     -0.000000000
       H     1.0347075000     0.0431876800     0.0000000000     -3.224316119     -0.533273890     -0.000000000
       H    -0.1755903100     0.8610807200     0.0000000000     -1.639278557      5.912413662     -0.000000000
