       3
Lattice="15.0 0.0 0.0 0.0 15.0 0.0 0.0 0.0 15.0" Properties=species:S:1:pos:R:3:forces:R:3 energy=        0.3441574684 pbc="T T T"
       O     0.0046887400    -0.0004110700     0.0000000000     -0.813672516      2.850044414     -0.000000000
       H     0.9851728800    -0.0769432600     0.0000000000     -1.243403302      0.907598816     -0.000000000
       H    -0.3382748000     1.0124152300     0.0000000000      2.057075819     -3.757643230     -0.000000000
