       3
Lattice="15.0 0.0 0.0 0.0 15.0 0.0 0.0 0.0 15.0" Properties=species:S:1:pos:R:3:forces:R:3 energy=        0.2575879133 pbc="T T T"
       O     0.0109601000     0.0092133900     0.0000000000     -5.234715286     -0.480361899     -0.000000000
       H     0.8942711800    -0.1139707400     0.0000000000      4.199302038      0.462084123     -0.000000000
       H    -0.3469053100     0.8966952100     0.0000000000      1.035413248      0.018277775     -0.000000000
