       3
Lattice="15.0 0.0 0.0 0.0 15.0 0.0 0.0 0.0 15.0" Properties=species:S:1:pos:R:3:forces:R:3 energy=        0.6105037336 pbc="T T T"
       O     0.0032690500    -0.0074132000     0.0000000000     -0.861189405      4.369057198     -0.000000000
       H     0.9853331900    -0.0375079800     0.0000000000     -1.093406976      0.593214200     -0.000000000
       H    -0.3159025600     1.0841086600     0.0000000000      1.954596432     -4.962271399     -0.000000000
