       3
Lattice="15.0 0.0 0.0 0.0 15.0 0.0 0.0 0.0 15.0" Properties=species:S:1:pos:R:3:forces:R:3 energy=        0.5743891223 pbc="T T T"
       O    -0.0137054000    -0.0047674100     0.0000000000      5.261640148      0.730768027     -0.000000000
       H     1.1226654600     0.0567065200     0.0000000000     -5.038973099     -0.494618518     -0.000000000
       H    -0.1838355800     0.9479034700     0.0000000000     -0.222667101     -0.236149509     -0.000000000
