       3
Lattice="15.0 0.0 0.0 0.0 15.0 0.0 0.0 0.0 15.0" Properties=species:S:1:pos:R:3:forces:R:3 energy=        1.1991757750 pbc="T T T"
       O     0.0007085400     0.0164320100     0.0000000000      7.154017294    -16.049985723     -0.000000000
       H     0.9947271900    -0.0883828000     0.0000000000     -2.289255234      0.953318760     -0.000000000
       H    -0.2846611600     0.7565427300     0.0000000000     -4.864762111     15.096666964     -0.000000000
