       3
Lattice="15.0 0.0 0.0 0.0 15.0 0.0 0.0 0.0 15.0" Properties=species:S:1:pos:R:3:forces:R:3 energy=        0.1567107693 pbc="T T T"
       O    -0.0049237500     0.0003381400     0.0000000000      3.296499205     -0.437827759     -0.000000000
       H     1.0383794000    -0.0021559100     0.0000000000     -3.357581292      0.131018645     -0.000000000
       H    -0.2389223000     0.9257370400     0.0000000000      0.061082087      0.306809114     -0.000000000
