       3
Lattice="15.0 0.0 0.0 0.0 15.0 0.0 0.0 0.0 15.0" Properties=species:S:1:pos:R:3:forces:R:3 energy=        0.5310046653 pbc="T T T"
       O    -0.0005195400    -0.0110239400     0.0000000000      0.075819863      4.807524648     -0.000000000
       H     0.9889063400     0.0177853000     0.0000000000     -1.315506068      0.062405794     -0.000000000
       H    -0.2593466000     1.0861201800     0.0000000000      1.239686205     -4.869930442     -0.000000000
