       3
Lattice="15.0 0.0 0.0 0.0 15.0 0.0 0.0 0.0 15.0" Properties=species:S:1:pos:R:3:forces:R:3 energy=        0.2965597528 pbc="T T T"
       O    -0.0063505900    -0.0083083500     0.0000000000     -0.347936396     -0.328364379     -0.000000000
       H     0.9164067200     0.1373880600     0.0000000000      2.326821383     -1.460254102     -0.000000000
       H    -0.0943008900     0.9234179600     0.0000000000     -1.978884986      1.788618480     -0.000000000
