       3
Lattice="15.0 0.0 0.0 0.0 15.0 0.0 0.0 0.0 15.0" Properties=species:S:1:pos:R:3:forces:R:3 energy=        0.6520100199 pbc="T T T"
       O    -0.0044276100     0.0075698100     0.0000000000      4.415848573     -1.850362986     -0.000000000
       H     1.1210405900    -0.0952455900     0.0000000000     -5.288909589      1.329124745     -0.000000000
       H    -0.3294601500     0.9040556700     0.0000000000      0.873061017      0.521238242     -0.000000000
