       3
Lattice="15.0 0.0 0.0 0.0 15.0 0.0 0.0 0.0 15.0" Properties=species:S:1:pos:R:3:forces:R:3 energy=        0.5402748362 pbc="T T T"
       O     0.0027875800     0.0029244500     0.0000000000      1.257740757      1.945398769     -0.000000000
       H     1.0470592900    -0.1120798600     0.0000000000     -3.603112195      1.422009233     -0.000000000
       H    -0.3699894900     0.9946151600     0.0000000000      2.345371438     -3.367408002     -0.000000000
