       3
Lattice="15.0 0.0 0.0 0.0 15.0 0.0 0.0 0.0 15.0" Properties=species:S:1:pos:R:3:forces:R:3 energy=        0.1845699087 pbc="T T T"
       O     0.0017596800    -0.0065299100     0.0000000000     -2.942049122      3.194714634     -0.000000000
       H     0.9218489000     0.0276073500     0.0000000000      2.449263441     -0.133377788     -0.000000000
       H    -0.2284617600     1.0049742600     0.0000000000      0.492785681     -3.061336846     -0.000000000
