       3
Lattice="15.0 0.0 0.0 0.0 15.0 0.0 0.0 0.0 15.0" Properties=species:S:1:pos:R:3:forces:R:3 energy=        0.7981063949 pbc="T T T"
       O    -0.0040539200     0.0087006100     0.0000000000      5.344253639    -12.133403609     -0.000000000
       H     0.9980597200    -0.0079165100     0.0000000000     -2.102216184      0.001247603     -0.000000000
       H    -0.2124077500     0.7987790000     0.0000000000     -3.242037404     12.132156006     -0.000000000
