       3
Lattice="15.0 0.0 0.0 0.0 15.0 0.0 0.0 0.0 15.0" Properties=species:S:1:pos:R:3:forces:R:3 energy=        0.3882751851 pbc="T T T"
       O    -0.0052960800    -0.0062413000     0.0000000000      2.754440726      3.286565589     -0.000000000
       H     1.0542441000     0.0108450500     0.0000000000     -3.698574884      0.078644786     -0.000000000
       H    -0.2488774400     1.0171566700     0.0000000000      0.944134158     -3.365210376     -0.000000000
