       3
Lattice="15.0 0.0 0.0 0.0 15.0 0.0 0.0 0.0 15.0" Properties=species:S:1:pos:R:3:forces:R:3 energy=        0.3443225871 pbc="T T T"
       O     0.0003934400     0.0007318000     0.0000000000      1.611852432      1.954894217     -0.000000000
       H     1.0382221900    -0.0688032200     0.0000000000     -3.323693519      0.944241784     -0.000000000
       H    -0.3231544300     0.9861372200     0.0000000000      1.711841036     -2.899136001     -0.000000000
