       3
Lattice="15.0 0.0 0.0 0.0 15.0 0.0 0.0 0.0 15.0" Properties=species:S:1:pos:R:3:forces:R:3 energy=        0.5830367320 pbc="T T T"
       O    -0.0010634400    -0.0111326400     0.0000000000      0.560923649      4.837546714     -0.000000000
       H     1.0020989000     0.0145865100     0.0000000000     -1.872489036      0.099446203     -0.000000000
       H    -0.2639071400     1.0910441900     0.0000000000      1.311565387     -4.936992866     -0.000000000
