       3
Lattice="15.0 0.0 0.0 0.0 15.0 0.0 0.0 0.0 15.0" Properties=species:S:1:pos:R:3:forces:R:3 energy=        0.3834863866 pbc="T T T"
       O     0.0088587600     0.0112892100     0.0000000000     -3.796801818     -4.693416516     -0.000000000
       H     0.8882908000    -0.0899707600     0.0000000000      4.690114910      0.225909263     -0.000000000
       H    -0.3075745000     0.8397502900     0.0000000000     -0.893313092      4.467507253     -0.000000000
