       3
Lattice="15.0 0.0 0.0 0.0 15.0 0.0 0.0 0.0 15.0" Properties=species:S:1:pos:R:3:forces:R:3 energy=        0.7806362823 pbc="T T T"
       O    -0.0036464000    -0.0207725800     0.0000000000     -0.957399668      5.914924705     -0.000000000
       H     0.9346204500     0.1291927800     0.0000000000      1.089242506     -0.812895426     -0.000000000
       H    -0.1554321700     1.1294300800     0.0000000000     -0.131842838     -5.102029331     -0.000000000
