       3
Lattice="15.0 0.0 0.0 0.0 15.0 0.0 0.0 0.0 15.0" Properties=species:S:1:pos:R:3:forces:R:3 energy=        0.4443374513 pbc="T T T"
       O    -0.0086286100    -0.0101046100     0.0000000000      3.387324959      3.945792432     -0.000000000
       H     1.0583129200     0.0609288800     0.0000000000     -3.762577539     -0.502954656     -0.000000000
       H    -0.2000551800     1.0283862300     0.0000000000      0.375252632     -3.442837725     -0.000000000
