       3
Lattice="15.0 0.0 0.0 0.0 15.0 0.0 0.0 0.0 15.0" Properties=species:S:1:pos:R:3:forces:R:3 energy=        0.2570329561 pbc="T T T"
       O     0.0039258800    -0.0056117600     0.0000000000     -4.201004571      3.367565970     -0.000000000
       H     0.9112074000     0.0062813900     0.0000000000      3.339467296      0.046133891     -0.000000000
       H    -0.2522000300     1.0117286200     0.0000000000      0.861537275     -3.413699913     -0.000000000
