       3
Lattice="15.0 0.0 0.0 0.0 15.0 0.0 0.0 0.0 15.0" Properties=species:S:1:pos:R:3:forces:R:3 energy=        0.5190742740 pbc="T T T"
       O     0.0056861400    -0.0071663000     0.0000000000     -8.029833403      3.548081717     -0.000000000
       H     0.8668347200     0.0239426600     0.0000000000      7.411056460      0.007866397     -0.000000000
       H    -0.2357635200     1.0187386900     0.0000000000      0.618776943     -3.555948114     -0.000000000
