       3
Lattice="15.0 0.0 0.0 0.0 15.0 0.0 0.0 0.0 15.0" Properties=species:S:1:pos:R:3:forces:R:3 energy=        0.6627448083 pbc="T T T"
       O    -0.0176538100    -0.0075851000     0.0000000000      5.757353288     -1.012115906     -0.000000000
       H     1.0921623900     0.1379315500     0.0000000000     -4.260286628     -1.624768375     -0.000000000
       H    -0.0906662600     0.9113967100     0.0000000000     -1.497066660      2.636884281     -0.000000000
