       3
Lattice="15.0 0.0 0.0 0.0 15.0 0.0 0.0 0.0 15.0" Properties=species:S:1:pos:R:3:forces:R:3 energy=        0.2400280522 pbc="T T T"
       O    -0.0038239800    -0.0010306800     0.0000000000      0.476225403     -3.861707857     -0.000000000
       H     0.9344500500     0.0693071700     0.0000000000      1.367999586     -0.871549053     -0.000000000
       H    -0.1524453100     0.8759973200     0.0000000000     -1.844224989      4.733256961     -0.000000000
