       3
Lattice="15.0 0.0 0.0 0.0 15.0 0.0 0.0 0.0 15.0" Properties=species:S:1:pos:R:3:forces:R:3 energy=        0.7847123602 pbc="T T T"
       O     0.0064914200    -0.0041918200     0.0000000000    -12.223882828      1.302360268     -0.000000000
       H     0.8239063700     0.0379807400     0.0000000000     12.548657894     -0.057659330     -0.000000000
       H    -0.2056152100     0.9574931600     0.0000000000     -0.324775066     -1.244700939     -0.000000000
