       3
Lattice="15.0 0.0 0.0 0.0 15.0 0.0 0.0 0.0 15.0" Properties=species:S:1:pos:R:3:forces:R:3 energy=        0.2443837053 pbc="T T T"
       O     0.0062349900    -0.0014246300     0.0000000000     -3.671838741      2.931327308     -0.000000000
       H     0.9277164100    -0.0481893200     0.0000000000      2.116569374      0.441765920     -0.000000000
       H    -0.3053578100     0.9997468600     0.0000000000      1.555269418     -3.373093228     -0.000000000
