       3
Lattice="15.0 0.0 0.0 0.0 15.0 0.0 0.0 0.0 15.0" Properties=species:S:1:pos:R:3:forces:R:3 energy=        0.7708768697 pbc="T T T"
       O    -0.0008284500    -0.0183509800     0.0000000000     -1.889290329      5.692044563     -0.000000000
       H     0.9338647300     0.0874207800     0.0000000000      1.430997608     -0.398292915     -0.000000000
       H    -0.1994005000     1.1327697700     0.0000000000      0.458292773     -5.293751596     -0.000000000
