       3
Lattice="15.0 0.0 0.0 0.0 15.0 0.0 0.0 0.0 15.0" Properties=species:S:1:pos:R:3:forces:R:3 energy=        0.2494967383 pbc="T T T"
       O     0.0104231000     0.0085300000     0.0000000000     -5.359712764     -0.554526279     -0.000000000
       H     0.8919795000    -0.1034199000     0.0000000000      4.478498159      0.385733431     -0.000000000
       H    -0.3360908200     0.8969902300     0.0000000000      0.881214606      0.168792848     -0.000000000
