       3
Lattice="15.0 0.0 0.0 0.0 15.0 0.0 0.0 0.0 15.0" Properties=species:S:1:pos:R:3:forces:R:3 energy=        0.4629033936 pbc="T T T"
       O     0.0046586700    -0.0084639000     0.0000000000     -4.680314631      4.344822946     -0.000000000
       H     0.9102075600     0.0070139400     0.0000000000      3.497253298      0.129215376     -0.000000000
       H    -0.2628300400     1.0562617100     0.0000000000      1.183061282     -4.474038321     -0.000000000
