       3
Lattice="15.0 0.0 0.0 0.0 15.0 0.0 0.0 0.0 15.0" Properties=species:S:1:pos:R:3:forces:R:3 energy=        0.7236071602 pbc="T T T"
       O     0.0017356400    -0.0126679500     0.0000000000     -8.347444754      3.201857265     -0.000000000
       H     0.8429638800     0.1085005200     0.0000000000      9.081437461     -0.143058921     -0.000000000
       H    -0.1491930900     1.0214956400     0.0000000000     -0.733992706     -3.058798343     -0.000000000
