       3
Lattice="15.0 0.0 0.0 0.0 15.0 0.0 0.0 0.0 15.0" Properties=species:S:1:pos:R:3:forces:R:3 energy=        0.6115791902 pbc="T T T"
       O    -0.0102218300    -0.0005556700     0.0000000000      4.821173407      0.329307820     -0.000000000
       H     1.1332945200    -0.0077498900     0.0000000000     -5.316653502      0.309555259     -0.000000000
       H    -0.2497532500     0.9455168800     0.0000000000      0.495480095     -0.638863079     -0.000000000
