       3
Lattice="15.0 0.0 0.0 0.0 15.0 0.0 0.0 0.0 15.0" Properties=species:S:1:pos:R:3:forces:R:3 energy=        0.4655017435 pbc="T T T"
       O    -0.0013716200     0.0055482600     0.0000000000      1.564908848     -8.435436688     -0.000000000
       H     0.9406803400     0.0135163200     0.0000000000      0.935892997     -0.344834770     -0.000000000
       H    -0.1975977400     0.8273759100     0.0000000000     -2.500801897      8.780271458     -0.000000000
