       3
Lattice="15.0 0.0 0.0 0.0 15.0 0.0 0.0 0.0 15.0" Properties=species:S:1:pos:R:3:forces:R:3 energy=        0.2118542756 pbc="T T T"
       O    -0.0097820200    -0.0077686800     0.0000000000      3.510998267      1.607249230     -0.000000000
       H     1.0241816400     0.0942867200     0.0000000000     -2.772746064     -1.038964252     -0.000000000
       H    -0.1476176700     0.9579550400     0.0000000000     -0.738252204     -0.568284978     -0.000000000
