       3
Lattice="15.0 0.0 0.0 0.0 15.0 0.0 0.0 0.0 15.0" Properties=species:S:1:pos:R:3:forces:R:3 energy=        0.1964684083 pbc="T T T"
       O    -0.0081342100    -0.0066604900     0.0000000000      3.262562427      1.998203905     -0.000000000
       H     1.0316473200     0.0646899000     0.0000000000     -3.038656672     -0.644228613     -0.000000000
       H    -0.1812361600     0.9699643600     0.0000000000     -0.223905756     -1.353975240     -0.000000000
