       3
Lattice="15.0 0.0 0.0 0.0 15.0 0.0 0.0 0.0 15.0" Properties=species:S:1:pos:R:3:forces:R:3 energy=        0.2193432899 pbc="T T T"
       O     0.0078200900     0.0037069600     0.0000000000     -5.945925230      0.270951412     -0.000000000
       H     0.8858392700    -0.0513750500     0.0000000000      5.376033878      0.124811691     -0.000000000
       H    -0.2886375200     0.9214903400     0.0000000000      0.569891353     -0.395763103     -0.000000000
