       3
Lattice="15.0 0.0 0.0 0.0 15.0 0.0 0.0 0.0 15.0" Properties=species:S:1:pos:R:3:forces:R:3 energy=        0.2577463053 pbc="T T T"
       O     0.0084754500     0.0071628800     0.0000000000     -5.408426502     -1.647936442     -0.000000000
       H     0.8843814400    -0.0692091300     0.0000000000      5.332985672      0.138123018     -0.000000000
       H    -0.2975811400     0.8844764900     0.0000000000      0.075440830      1.509813424     -0.000000000
