       3
Lattice="15.0 0.0 0.0 0.0 15.0 0.0 0.0 0.0 15.0" Properties=species:S:1:pos:R:3:forces:R:3 energy=        0.3486831627 pbc="T T T"
       O     0.0094477600     0.0088271900     0.0000000000     -5.908042064     -2.457237618     -0.000000000
       H     0.8755849300    -0.0796054200     0.0000000000      6.083202201      0.069689887     -0.000000000
       H    -0.3042162000     0.8684589100     0.0000000000     -0.175160137      2.387547732     -0.000000000
