       3
Lattice="15.0 0.0 0.0 0.0 15.0 0.0 0.0 0.0 15.0" Properties=species:S:1:pos:R:3:forces:R:3 energy=        0.7145439265 pbc="T T T"
       O    -0.0013849600     0.0129542300     0.0000000000      4.772037803     -4.286328264     -0.000000000
       H     1.1037717800    -0.1362997400     0.0000000000     -5.128752155      1.780240228     -0.000000000
       H    -0.3604814800     0.8596552200     0.0000000000      0.356714353      2.506088036     -0.000000000
