       3
Lattice="15.0 0.0 0.0 0.0 15.0 0.0 0.0 0.0 15.0" Properties=species:S:1:pos:R:3:forces:R:3 energy=        0.1517084594 pbc="T T T"
       O    -0.0051940700     0.0011322100     0.0000000000      3.212160400     -2.992624956     -0.000000000
       H     1.0051282700     0.0244937100     0.0000000000     -2.215007293     -0.287993001     -0.000000000
       H    -0.2013803200     0.8864847400     0.0000000000     -0.997153107      3.280618008     -0.000000000
