       3
Lattice="15.0 0.0 0.0 0.0 15.0 0.0 0.0 0.0 15.0" Properties=species:S:1:pos:R:3:forces:R:3 energy=        0.5365606725 pbc="T T T"
       O     0.0111679000     0.0010427200     0.0000000000     -9.448366297      2.926148332     -0.000000000
       H     0.8636749600    -0.0670273000     0.0000000000      7.820704401      0.077943646     -0.000000000
       H    -0.3196056300     0.9794259500     0.0000000000      1.627661896     -3.004091979     -0.000000000
