       3
Lattice="15.0 0.0 0.0 0.0 15.0 0.0 0.0 0.0 15.0" Properties=species:S:1:pos:R:3:forces:R:3 energy=        0.0334468969 pbc="T T T"
       O     0.0036636000     0.0021314000     0.0000000000     -1.528501188      0.485112888     -0.000000000
       H     0.9442772700    -0.0405643600     0.0000000000      0.861060644      0.365746951     -0.000000000
       H    -0.2811086200     0.9356850000     0.0000000000      0.667440492     -0.850859839     -0.000000000
