       3
Lattice="15.0 0.0 0.0 0.0 15.0 0.0 0.0 0.0 15.0" Properties=species:S:1:pos:R:3:forces:R:3 energy=        0.9517605173 pbc="T T T"
       O     0.0016774400     0.0173875000     0.0000000000      6.662912601    -12.815051561     -0.000000000
       H     1.0140002500    -0.1183001600     0.0000000000     -3.084252637      1.375528962     -0.000000000
       H    -0.3193120300     0.7712959500     0.0000000000     -3.578659964     11.439522650     -0.000000000
