       3
Lattice="15.0 0.0 0.0 0.0 15.0 0.0 0.0 0.0 15.0" Properties=species:S:1:pos:R:3:forces:R:3 energy=        0.3944094914 pbc="T T T"
       O     0.0084212700     0.0102303600     0.0000000000     -4.324602598     -4.558952848     -0.000000000
       H     0.8830273300    -0.0771555000     0.0000000000      5.277287169      0.110087490     -0.000000000
       H    -0.2953674000     0.8437396900     0.0000000000     -0.952684571      4.448865410     -0.000000000
