       3
Lattice="15.0 0.0 0.0 0.0 15.0 0.0 0.0 0.0 15.0" Properties=species:S:1:pos:R:3:forces:R:3 energy=        0.2710093689 pbc="T T T"
       O    -0.0047862300     0.0042627100     0.0000000000      4.031681305     -5.003299128     -0.000000000
       H     1.0184746200    -0.0007604600     0.0000000000     -2.780275183      0.018796727     -0.000000000
       H    -0.2212001300     0.8620557100     0.0000000000     -1.251406122      4.984502401     -0.000000000
