       3
Lattice="15.0 0.0 0.0 0.0 15.0 0.0 0.0 0.0 15.0" Properties=species:S:1:pos:R:3:forces:R:3 energy=        0.9515385703 pbc="T T T"
       O     0.0134800900     0.0009399900     0.0000000000    -14.372029169      3.423623502     -0.000000000
       H     0.8253958600    -0.0654744100     0.0000000000     12.760418164     -0.354509271     -0.000000000
       H    -0.3180226700     0.9795034400     0.0000000000      1.611611057     -3.069114231     -0.000000000
