       3
Lattice="15.0 0.0 0.0 0.0 15.0 0.0 0.0 0.0 15.0" Properties=species:S:1:pos:R:3:forces:R:3 energy=        0.5552798448 pbc="T T T"
       O     0.0038222200    -0.0105024100     0.0000000000     -3.634198081      4.771592128     -0.000000000
       H     0.9254880400     0.0118800100     0.0000000000      2.358518678      0.140111870     -0.000000000
       H    -0.2648352800     1.0837483000     0.0000000000      1.275679404     -4.911704049     -0.000000000
