       3
Lattice="15.0 0.0 0.0 0.0 15.0 0.0 0.0 0.0 15.0" Properties=species:S:1:pos:R:3:forces:R:3 energy=        0.3452650807 pbc="T T T"
       O     0.0008758400    -0.0084262600     0.0000000000     -0.937023151      4.230731732     -0.000000000
       H     0.9657622600     0.0103753900     0.0000000000     -0.205002431      0.090528945     -0.000000000
       H    -0.2583484000     1.0523030800     0.0000000000      1.142025582     -4.321260677     -0.000000000
