       3
Lattice="15.0 0.0 0.0 0.0 15.0 0.0 0.0 0.0 15.0" Properties=species:S:1:pos:R:3:forces:R:3 energy=        0.2602412194 pbc="T T T"
       O     0.0064326000     0.0100479600     0.0000000000     -1.745147636     -4.826943480     -0.000000000
       H     0.9137689900    -0.0759441100     0.0000000000      2.653735453      0.385331104     -0.000000000
       H    -0.2945475000     0.8454232400     0.0000000000     -0.908587817      4.441612376     -0.000000000
