       3
Lattice="15.0 0.0 0.0 0.0 15.0 0.0 0.0 0.0 15.0" Properties=species:S:1:pos:R:3:forces:R:3 energy=        0.2712016391 pbc="T T T"
       O     0.0019728900    -0.0026417100     0.0000000000     -5.220821500     -0.392388426     -0.000000000
       H     0.8764391600     0.0479897300     0.0000000000      6.116196001     -0.418760706     -0.000000000
       H    -0.1864354800     0.9228829600     0.0000000000     -0.895374500      0.811149132     -0.000000000
