       3
Lattice="15.0 0.0 0.0 0.0 15.0 0.0 0.0 0.0 15.0" Properties=species:S:1:pos:R:3:forces:R:3 energy=        0.3112797875 pbc="T T T"
       O    -0.0052252000    -0.0139909700     0.0000000000     -0.542379456      3.975401270     -0.000000000
       H     0.9295379300     0.1312278700     0.0000000000      1.432820470     -1.127900552     -0.000000000
       H    -0.1252929700     1.0197656700     0.0000000000     -0.890441014     -2.847500769     -0.000000000
