       3
Lattice="15.0 0.0 0.0 0.0 15.0 0.0 0.0 0.0 15.0" Properties=species:S:1:pos:R:3:forces:R:3 energy=        0.7056847155 pbc="T T T"
       O     0.0141864300     0.0031563300     0.0000000000     -6.954838054      3.557837567     -0.000000000
       H     0.8995179700    -0.1387205400     0.0000000000      4.017070284      0.709697364     -0.000000000
       H    -0.4033567800     1.0175752000     0.0000000000      2.937767770     -4.267534982     -0.000000000
