       3
Lattice="15.0 0.0 0.0 0.0 15.0 0.0 0.0 0.0 15.0" Properties=species:S:1:pos:R:3:forces:R:3 energy=        0.7293206696 pbc="T T T"
       O     0.0051216700     0.0047359400     0.0000000000      0.835302755      1.912315803     -0.000000000
       H     1.0493128700    -0.1483031100     0.0000000000     -3.681351004      1.788991239     -0.000000000
       H    -0.4092877400     1.0020889700     0.0000000000      2.846048301     -3.701306991     -0.000000000
