       3
Lattice="15.0 0.0 0.0 0.0 15.0 0.0 0.0 0.0 15.0" Properties=species:S:1:pos:R:3:forces:R:3 energy=        0.3563659574 pbc="T T T"
       O    -0.0044264600     0.0064020200     0.0000000000      4.595582601     -4.084025287     -0.000000000
       H     1.0597734500    -0.0440046600     0.0000000000     -4.092509006      0.638905965     -0.000000000
       H    -0.2682098700     0.8713479400     0.0000000000     -0.503073595      3.445119323     -0.000000000
