       3
Lattice="15.0 0.0 0.0 0.0 15.0 0.0 0.0 0.0 15.0" Properties=species:S:1:pos:R:3:forces:R:3 energy=        0.1573350937 pbc="T T T"
       O    -0.0085039600    -0.0069532600     0.0000000000      3.057350863      1.342320012     -0.000000000
       H     1.0111543400     0.0860825900     0.0000000000     -2.341196376     -0.945021343     -0.000000000
       H    -0.1548743100     0.9532179700     0.0000000000     -0.716154487     -0.397298669     -0.000000000
