       3
Lattice="15.0 0.0 0.0 0.0 15.0 0.0 0.0 0.0 15.0" Properties=species:S:1:pos:R:3:forces:R:3 energy=        0.7437511942 pbc="T T T"
       O     0.0025264400    -0.0132780200     0.0000000000     -2.024052400      5.215281953     -0.000000000
       H     0.9528368300     0.0153580900     0.0000000000      0.613101847      0.157545449     -0.000000000
       H    -0.2716190100     1.1243213100     0.0000000000      1.410950604     -5.372827454     -0.000000000
