       3
Lattice="15.0 0.0 0.0 0.0 15.0 0.0 0.0 0.0 15.0" Properties=species:S:1:pos:R:3:forces:R:3 energy=        0.5568066703 pbc="T T T"
       O     0.0135171700     0.0045069500     0.0000000000     -8.854950728      2.835681145     -0.000000000
       H     0.8715179800    -0.1129857200     0.0000000000      6.654888493      0.218833584     -0.000000000
       H    -0.3647345300     0.9704048100     0.0000000000      2.200062235     -3.054514729     -0.000000000
