       3
Lattice="15.0 0.0 0.0 0.0 15.0 0.0 0.0 0.0 15.0" Properties=species:S:1:pos:R:3:forces:R:3 energy=        0.4887682051 pbc="T T T"
       O    -0.0108534600    -0.0155965000     0.0000000000      3.271845606      4.880022438     -0.000000000
       H     1.0238551000     0.1324100300     0.0000000000     -2.757325300     -1.330990852     -0.000000000
       H    -0.1302855300     1.0440649000     0.0000000000     -0.514520306     -3.549031535     -0.000000000
