       3
Lattice="15.0 0.0 0.0 0.0 15.0 0.0 0.0 0.0 15.0" Properties=species:S:1:pos:R:3:forces:R:3 energy=        0.4590263126 pbc="T T T"
       O     0.0134415700     0.0118667800     0.0000000000     -7.377906132     -1.163382306     -0.000000000
       H     0.8654209000    -0.1305102000     0.0000000000      6.675391559      0.069258353     -0.000000000
       H    -0.3574382000     0.8711234300     0.0000000000      0.702514573      1.094123954     -0.000000000
