       3
Lattice="15.0 0.0 0.0 0.0 15.0 0.0 0.0 0.0 15.0" Properties=species:S:1:pos:R:3:forces:R:3 energy=        0.2278693110 pbc="T T T"
       O    -0.0082205300    -0.0111074100     0.0000000000      1.326473525      2.073899994     -0.000000000
       H     0.9529546800     0.1408725600     0.0000000000      0.132712592     -1.514036309     -0.000000000
       H    -0.1011715300     0.9643568500     0.0000000000     -1.459186116     -0.559863737     -0.000000000
