       3
Lattice="15.0 0.0 0.0 0.0 15.0 0.0 0.0 0.0 15.0" Properties=species:S:1:pos:R:3:forces:R:3 energy=        0.0171674267 pbc="T T T"
       O    -0.0019202300    -0.0017127000     0.0000000000      0.993086391      0.671396599     -0.000000000
       H     0.9795251200     0.0129926000     0.0000000000     -1.050579370     -0.093383796     -0.000000000
       H    -0.2277356700     0.9431366600     0.0000000000      0.057493031     -0.578012803     -0.000000000
