       3
Lattice="15.0 0.0 0.0 0.0 15.0 0.0 0.0 0.0 15.0" Properties=species:S:1:pos:R:3:forces:R:3 energy=        1.0763225878 pbc="T T T"
       O     0.0152484100     0.0022362800     0.0000000000    -15.348473984      3.838625767     -0.000000000
       H     0.8201641400    -0.0872892700     0.0000000000     13.387357952     -0.556831788     -0.000000000
       H    -0.3408561000     0.9807452300     0.0000000000      1.961115981     -3.281793980     -0.000000000
