       3
Lattice="15.0 0.0 0.0 0.0 15.0 0.0 0.0 0.0 15.0" Properties=species:S:1:pos:R:3:forces:R:3 energy=        0.4515898326 pbc="T T T"
       O    -0.0011008200     0.0111222100     0.0000000000      4.728634270     -6.549975350     -0.000000000
       H     1.0393387000    -0.0839949700     0.0000000000     -3.665069743      1.068945643     -0.000000000
       H    -0.3005565000     0.8364254900     0.0000000000     -1.063564527      5.481029707     -0.000000000
