       3
Lattice="15.0 0.0 0.0 0.0 15.0 0.0 0.0 0.0 15.0" Properties=species:S:1:pos:R:3:forces:R:3 energy=        1.2348764577 pbc="T T T"
       O     0.0128045800     0.0002978000     0.0000000000    -17.762910377      2.622127016     -0.000000000
       H     0.7998736400    -0.0353073300     0.0000000000     16.877199527     -0.484212282     -0.000000000
       H    -0.2817788400     0.9595279900     0.0000000000      0.885710850     -2.137914683     -0.000000000
