       3
Lattice="15.0 0.0 0.0 0.0 15.0 0.0 0.0 0.0 15.0" Properties=species:S:1:pos:R:3:forces:R:3 energy=        0.2695825018 pbc="T T T"
       O    -0.0113677200    -0.0070908100     0.0000000000      4.068085469      0.420093464     -0.000000000
       H     1.0305440000     0.1067523400     0.0000000000     -2.945097115     -1.244027258     -0.000000000
       H    -0.1288136100     0.9347311600     0.0000000000     -1.122988303      0.823933794     -0.000000000
