       3
Lattice="15.0 0.0 0.0 0.0 15.0 0.0 0.0 0.0 15.0" Properties=species:S:1:pos:R:3:forces:R:3 energy=        0.5687859496 pbc="T T T"
       O    -0.0029538600    -0.0132165400     0.0000000000      0.943911089      5.113636119     -0.000000000
       H     1.0005561000     0.0456484100     0.0000000000     -1.852103624     -0.225012462     -0.000000000
       H    -0.2323611600     1.0930551800     0.0000000000      0.908192535     -4.888623657     -0.000000000
