       3
Lattice="15.0 0.0 0.0 0.0 15.0 0.0 0.0 0.0 15.0" Properties=species:S:1:pos:R:3:forces:R:3 energy=        0.2250093699 pbc="T T T"
       O     0.0007239200     0.0071044900     0.0000000000      2.519353649     -1.481751414     -0.000000000
       H     1.0323698300    -0.0884118800     0.0000000000     -3.320662136      1.118416313     -0.000000000
       H    -0.3225477400     0.9046066500     0.0000000000      0.801308487      0.363335101     -0.000000000
