       3
Lattice="15.0 0.0 0.0 0.0 15.0 0.0 0.0 0.0 15.0" Properties=species:S:1:pos:R:3:forces:R:3 energy=        0.4836961469 pbc="T T T"
       O     0.0084001500    -0.0033709800     0.0000000000     -5.715607809      3.865695588     -0.000000000
       H     0.9068629400    -0.0525466500     0.0000000000      3.819909670      0.420536774     -0.000000000
       H    -0.3188671100     1.0349941100     0.0000000000      1.895698139     -4.286232362     -0.000000000
