       3
Lattice="15.0 0.0 0.0 0.0 15.0 0.0 0.0 0.0 15.0" Properties=species:S:1:pos:R:3:forces:R:3 energy=        0.5405098746 pbc="T T T"
       O    -0.0091461000    -0.0106184200     0.0000000000      3.583719332      4.179613034     -0.000000000
       H     1.0718124000     0.0584427100     0.0000000000     -4.080527146     -0.454413491     -0.000000000
       H    -0.2053418600     1.0390270100     0.0000000000      0.496807814     -3.725199544     -0.000000000
