       3
Lattice="15.0 0.0 0.0 0.0 15.0 0.0 0.0 0.0 15.0" Properties=species:S:1:pos:R:3:forces:R:3 energy=        0.1650829889 pbc="T T T"
       O    -0.0016940700    -0.0078161200     0.0000000000     -2.361503678      1.949378941     -0.000000000
       H     0.9092669000     0.0839943200     0.0000000000      3.096074317     -0.695076676     -0.000000000
       H    -0.1610648900     0.9690001000     0.0000000000     -0.734570588     -1.254302265     -0.000000000
