       3
Lattice="15.0 0.0 0.0 0.0 15.0 0.0 0.0 0.0 15.0" Properties=species:S:1:pos:R:3:forces:R:3 energy=        0.7181063622 pbc="T T T"
       O    -0.0102115600     0.0024051300     0.0000000000      5.167929770     -1.065194299     -0.000000000
       H     1.1498652000    -0.0300733000     0.0000000000     -5.568624097      0.580264782     -0.000000000
       H    -0.2664874100     0.9208504300     0.0000000000      0.400694327      0.484929517     -0.000000000
