       3
Lattice="15.0 0.0 0.0 0.0 15.0 0.0 0.0 0.0 15.0" Properties=species:S:1:pos:R:3:forces:R:3 energy=        0.3819306056 pbc="T T T"
       O     0.0066947100     0.0080190700     0.0000000000     -4.339921032     -4.610994109     -0.000000000
       H     0.8822043900    -0.0482706400     0.0000000000      5.512276287     -0.030162140     -0.000000000
       H    -0.2671419600     0.8499494800     0.0000000000     -1.172355255      4.641156249     -0.000000000
