       3
Lattice="15.0 0.0 0.0 0.0 15.0 0.0 0.0 0.0 15.0" Properties=species:S:1:pos:R:3:forces:R:3 energy=        0.4570012929 pbc="T T T"
       O     0.0094835700     0.0007591400     0.0000000000     -3.961144290      3.211815975     -0.000000000
       H     0.9353442700    -0.1010289900     0.0000000000      1.529030064      0.859248221     -0.000000000
       H    -0.3645443000     1.0179287800     0.0000000000      2.432114175     -4.071064145     -0.000000000
