       3
Lattice="15.0 0.0 0.0 0.0 15.0 0.0 0.0 0.0 15.0" Properties=species:S:1:pos:R:3:forces:R:3 energy=        0.3484757222 pbc="T T T"
       O    -0.0130865500    -0.0087346300     0.0000000000      4.391896370      0.852670668     -0.000000000
       H     1.0381653200     0.1271967000     0.0000000000     -3.120796977     -1.492644823     -0.000000000
       H    -0.1091553200     0.9403753600     0.0000000000     -1.271099393      0.639974156     -0.000000000
