       3
Lattice="15.0 0.0 0.0 0.0 15.0 0.0 0.0 0.0 15.0" Properties=species:S:1:pos:R:3:forces:R:3 energy=        0.4024179493 pbc="T T T"
       O     0.0056851600     0.0140004000     0.0000000000      1.618084841     -7.514601621     -0.000000000
       H     0.9497875600    -0.1071559000     0.0000000000     -0.001660111      0.902544385     -0.000000000
       H    -0.3187044100     0.8139072400     0.0000000000     -1.616424730      6.612057236     -0.000000000
