       3
Lattice="15.0 0.0 0.0 0.0 15.0 0.0 0.0 0.0 15.0" Properties=species:S:1:pos:R:3:forces:R:3 energy=        1.1955979594 pbc="T T T"
       O     0.0133466200     0.0016341800     0.0000000000    -17.462248465      2.507488002     -0.000000000
       H     0.8016866300    -0.0476061900     0.0000000000     16.498896845     -0.607331260     -0.000000000
       H    -0.2921948000     0.9506176800     0.0000000000      0.963351672     -1.900156691     -0.000000000
