       3
Lattice="15.0 0.0 0.0 0.0 15.0 0.0 0.0 0.0 15.0" Properties=species:S:1:pos:R:3:forces:R:3 energy=        0.5731254446 pbc="T T T"
       O    -0.0081080400    -0.0007466000     0.0000000000      4.236943931      1.124006820     -0.000000000
       H     1.1199455000    -0.0228327300     0.0000000000     -5.132028976      0.490850205     -0.000000000
       H    -0.2699519400     0.9636300300     0.0000000000      0.895085045     -1.614857025     -0.000000000
