       3
Lattice="15.0 0.0 0.0 0.0 15.0 0.0 0.0 0.0 15.0" Properties=species:S:1:pos:R:3:forces:R:3 energy=        0.0263944349 pbc="T T T"
       O    -0.0016425600    -0.0023479000     0.0000000000     -0.260817507     -0.114763866     -0.000000000
       H     0.9441491600     0.0390423800     0.0000000000      0.839164605     -0.421114861     -0.000000000
       H    -0.1967658200     0.9271676200     0.0000000000     -0.578347098      0.535878676     -0.000000000
