       3
Lattice="15.0 0.0 0.0 0.0 15.0 0.0 0.0 0.0 15.0" Properties=species:S:1:pos:R:3:forces:R:3 energy=        0.2174949238 pbc="T T T"
       O     0.0040518400     0.0041194100     0.0000000000      0.272847036      1.114802318     -0.000000000
       H     0.9993035000    -0.0943423800     0.0000000000     -2.014166143      1.097989969     -0.000000000
       H    -0.3422979400     0.9579124500     0.0000000000      1.741319107     -2.212792287     -0.000000000
