       3
Lattice="15.0 0.0 0.0 0.0 15.0 0.0 0.0 0.0 15.0" Properties=species:S:1:pos:R:3:forces:R:3 energy=        0.3333039159 pbc="T T T"
       O    -0.0082637000     0.0012735600     0.0000000000      4.675281026     -4.232853767     -0.000000000
       H     1.0391464900     0.0354624300     0.0000000000     -3.367597800     -0.408065940     -0.000000000
       H    -0.1866810600     0.8732727400     0.0000000000     -1.307683226      4.640919707     -0.000000000
