       3
Lattice="15.0 0.0 0.0 0.0 15.0 0.0 0.0 0.0 15.0" Properties=species:S:1:pos:R:3:forces:R:3 energy=        0.3818259996 pbc="T T T"
       O     0.0042333500     0.0092067500     0.0000000000     -0.836637415     -6.959778174     -0.000000000
       H     0.9141162200    -0.0464595400     0.0000000000      2.691976311      0.142708171     -0.000000000
       H    -0.2599902600     0.8292891700     0.0000000000     -1.855338896      6.817070003     -0.000000000
