       3
Lattice="15.0 0.0 0.0 0.0 15.0 0.0 0.0 0.0 15.0" Properties=species:S:1:pos:R:3:forces:R:3 energy=        0.3241750374 pbc="T T T"
       O    -0.0055576400     0.0047085600     0.0000000000      4.595692182     -3.892031462     -0.000000000
       H     1.0550509600    -0.0210608900     0.0000000000     -3.925077249      0.347016815     -0.000000000
       H    -0.2455342000     0.8752804300     0.0000000000     -0.670614932      3.545014647     -0.000000000
