       3
Lattice="15.0 0.0 0.0 0.0 15.0 0.0 0.0 0.0 15.0" Properties=species:S:1:pos:R:3:forces:R:3 energy=        0.0623024792 pbc="T T T"
       O    -0.0019666900    -0.0005717900     0.0000000000      0.233073440     -1.736140595     -0.000000000
       H     0.9456223100     0.0362965400     0.0000000000      0.726327113     -0.445290955     -0.000000000
       H    -0.1930948800     0.9017252800     0.0000000000     -0.959400604      2.181431550     -0.000000000
