       3
Lattice="15.0 0.0 0.0 0.0 15.0 0.0 0.0 0.0 15.0" Properties=species:S:1:pos:R:3:forces:R:3 energy=        0.9688086030 pbc="T T T"
       O     0.0056515500    -0.0091406000     0.0000000000    -12.792051078      2.642569969     -0.000000000
       H     0.8176012800     0.0688208900     0.0000000000     13.083720038      0.216999924     -0.000000000
       H    -0.1859798700     1.0051936100     0.0000000000     -0.291668960     -2.859569893     -0.000000000
