       3
Lattice="15.0 0.0 0.0 0.0 15.0 0.0 0.0 0.0 15.0" Properties=species:S:1:pos:R:3:forces:R:3 energy=        0.7979775381 pbc="T T T"
       O     0.0084628900    -0.0013719400     0.0000000000     -1.791937211      3.584959993     -0.000000000
       H     0.9838536600    -0.1194038000     0.0000000000     -1.110795612      1.295227253     -0.000000000
       H    -0.3968551900     1.0701257500     0.0000000000      2.902732822     -4.880187195     -0.000000000
