       3
Lattice="15.0 0.0 0.0 0.0 15.0 0.0 0.0 0.0 15.0" Properties=species:S:1:pos:R:3:forces:R:3 energy=        0.6215602558 pbc="T T T"
       O     0.0082357200     0.0003936700     0.0000000000     -1.835535530      3.219988950     -0.000000000
       H     0.9785687500    -0.1180637400     0.0000000000     -0.930301205      1.252756517     -0.000000000
       H    -0.3879649500     1.0407640700     0.0000000000      2.765836735     -4.472745416     -0.000000000
