       3
Lattice="15.0 0.0 0.0 0.0 15.0 0.0 0.0 0.0 15.0" Properties=species:S:1:pos:R:3:forces:R:3 energy=        0.3957460140 pbc="T T T"
       O    -0.0051021000    -0.0156138300     0.0000000000     -0.142603836      4.824218675     -0.000000000
       H     0.9432952800     0.1241415100     0.0000000000      0.648509657     -1.019467722     -0.000000000
       H    -0.1410041500     1.0526082000     0.0000000000     -0.505905821     -3.804750953     -0.000000000
