       3
Lattice="15.0 0.0 0.0 0.0 15.0 0.0 0.0 0.0 15.0" Properties=species:S:1:pos:R:3:forces:R:3 energy=        0.3539429032 pbc="T T T"
       O     0.0040680900    -0.0071756900     0.0000000000     -5.590578037      3.546569856     -0.000000000
       H     0.8913248600     0.0248959100     0.0000000000      4.970960189     -0.045970112     -0.000000000
       H    -0.2345740500     1.0179347100     0.0000000000      0.619617848     -3.500599796     -0.000000000
