       3
Lattice="15.0 0.0 0.0 0.0 15.0 0.0 0.0 0.0 15.0" Properties=species:S:1:pos:R:3:forces:R:3 energy=        0.1550218701 pbc="T T T"
       O    -0.0080444300    -0.0074528100     0.0000000000      2.157715374      0.579559528     -0.000000000
       H     0.9749546600     0.1101032400     0.0000000000     -0.869304633     -1.260343538     -0.000000000
       H    -0.1259671600     0.9371251900     0.0000000000     -1.288410793      0.680784010     -0.000000000
