       3
Lattice="15.0 0.0 0.0 0.0 15.0 0.0 0.0 0.0 15.0" Properties=species:S:1:pos:R:3:forces:R:3 energy=        0.6556109652 pbc="T T T"
       O     0.0055606500    -0.0034484900     0.0000000000    -10.696956648      0.679814292     -0.000000000
       H     0.8329992100     0.0400485400     0.0000000000     11.234155123     -0.154719651     -0.000000000
       H    -0.1999360100     0.9436282500     0.0000000000     -0.537198475     -0.525094641     -0.000000000
