       3
Lattice="15.0 0.0 0.0 0.0 15.0 0.0 0.0 0.0 15.0" Properties=species:S:1:pos:R:3:forces:R:3 energy=        0.4854863704 pbc="T T T"
       O    -0.0127249900    -0.0133295200     0.0000000000      4.138773767      4.067114980     -0.000000000
       H     1.0550348800     0.1241197500     0.0000000000     -3.601915089     -1.290892474     -0.000000000
       H    -0.1317629600     1.0163766700     0.0000000000     -0.536858678     -2.776222505     -0.000000000
