       3
Lattice="15.0 0.0 0.0 0.0 15.0 0.0 0.0 0.0 15.0" Properties=species:S:1:pos:R:3:forces:R:3 energy=        0.5849647023 pbc="T T T"
       O    -0.0002714100    -0.0122031800     0.0000000000     -0.236053350      5.016863812     -0.000000000
       H     0.9815244100     0.0241753900     0.0000000000     -0.970681685      0.018167166     -0.000000000
       H    -0.2559024700     1.0984455400     0.0000000000      1.206735034     -5.035030927     -0.000000000
