       3
Lattice="15.0 0.0 0.0 0.0 15.0 0.0 0.0 0.0 15.0" Properties=species:S:1:pos:R:3:forces:R:3 energy=        0.3907050013 pbc="T T T"
       O    -0.0044287000     0.0061333500     0.0000000000      4.438941615     -2.820726420     -0.000000000
       H     1.0773712700    -0.0567956300     0.0000000000     -4.499163462      0.828858693     -0.000000000
       H    -0.2857724800     0.8884029500     0.0000000000      0.060221898      1.991867778     -0.000000000
