       3
Lattice="15.0 0.0 0.0 0.0 15.0 0.0 0.0 0.0 15.0" Properties=species:S:1:pos:R:3:forces:R:3 energy=        0.3310602909 pbc="T T T"
       O     0.0034222300     0.0087969200     0.0000000000     -0.146046545     -6.723219088     -0.000000000
       H     0.9251474400    -0.0437378700     0.0000000000      1.892569516      0.185545238     -0.000000000
       H    -0.2581482500     0.8330717900     0.0000000000     -1.746522971      6.537673798     -0.000000000
