       3
Lattice="15.0 0.0 0.0 0.0 15.0 0.0 0.0 0.0 15.0" Properties=species:S:1:pos:R:3:forces:R:3 energy=        0.5445806871 pbc="T T T"
       O    -0.0160914600    -0.0103635400     0.0000000000      5.205131593      1.879218902     -0.000000000
       H     1.0845016100     0.1333807200     0.0000000000     -4.175246219     -1.486131085     -0.000000000
       H    -0.1078012100     0.9600434400     0.0000000000     -1.029885374     -0.393087766     -0.000000000
