       3
Lattice="15.0 0.0 0.0 0.0 15.0 0.0 0.0 0.0 15.0" Properties=species:S:1:pos:R:3:forces:R:3 energy=        0.5080463373 pbc="T T T"
       O     0.0112875100     0.0089085200     0.0000000000     -8.470559619     -1.667535971     -0.000000000
       H     0.8538525500    -0.0856591200     0.0000000000      8.422983595     -0.186058328     -0.000000000
       H    -0.3116822300     0.8732218000     0.0000000000      0.047575972      1.853594299     -0.000000000
