       3
Lattice="15.0 0.0 0.0 0.0 15.0 0.0 0.0 0.0 15.0" Properties=species:S:1:pos:R:3:forces:R:3 energy=        0.1564223639 pbc="T T T"
       O    -0.0052147100    -0.0081108200     0.0000000000      1.725632542      3.050609685     -0.000000000
       H     0.9964173300     0.0606369600     0.0000000000     -1.766326594     -0.547946668     -0.000000000
       H    -0.1923407400     0.9970350500     0.0000000000      0.040694052     -2.502663016     -0.000000000
