       3
Lattice="15.0 0.0 0.0 0.0 15.0 0.0 0.0 0.0 15.0" Properties=species:S:1:pos:R:3:forces:R:3 energy=        0.1797052721 pbc="T T T"
       O    -0.0085772800    -0.0089151900     0.0000000000      2.782062358      2.286244625     -0.000000000
       H     1.0044935700     0.0983404400     0.0000000000     -2.092858444     -1.056990316     -0.000000000
       H    -0.1470495400     0.9720972500     0.0000000000     -0.689203914     -1.229254309     -0.000000000
