       3
Lattice="15.0 0.0 0.0 0.0 15.0 0.0 0.0 0.0 15.0" Properties=species:S:1:pos:R:3:forces:R:3 energy=        0.4692185984 pbc="T T T"
       O    -0.0083321000    -0.0033481700     0.0000000000      2.133350098     -5.079332958     -0.000000000
       H     0.9518775300     0.1186347800     0.0000000000      0.312084814     -1.546872706     -0.000000000
       H    -0.0983243100     0.8634497800     0.0000000000     -2.445434912      6.626205664     -0.000000000
