       3
Lattice="15.0 0.0 0.0 0.0 15.0 0.0 0.0 0.0 15.0" Properties=species:S:1:pos:R:3:forces:R:3 energy=        0.1010700428 pbc="T T T"
       O    -0.0064198600    -0.0071844700     0.0000000000      1.937846715      1.747890542     -0.000000000
       H     0.9854888700     0.0810564900     0.0000000000     -1.328094966     -0.854294474     -0.000000000
       H    -0.1622851700     0.9619133800     0.0000000000     -0.609751749     -0.893596067     -0.000000000
