       3
Lattice="15.0 0.0 0.0 0.0 15.0 0.0 0.0 0.0 15.0" Properties=species:S:1:pos:R:3:forces:R:3 energy=        0.2248902575 pbc="T T T"
       O    -0.0043242400     0.0009510500     0.0000000000      2.023567232     -4.624646673     -0.000000000
       H     0.9633038300     0.0468223300     0.0000000000     -0.304721428     -0.634227840     -0.000000000
       H    -0.1733602200     0.8670308800     0.0000000000     -1.718845804      5.258874462     -0.000000000
