       3
Lattice="15.0 0.0 0.0 0.0 15.0 0.0 0.0 0.0 15.0" Properties=species:S:1:pos:R:3:forces:R:3 energy=        0.1458270285 pbc="T T T"
       O    -0.0000076500     0.0066366300     0.0000000000      2.278068616     -4.165068966     -0.000000000
       H     0.9865160500    -0.0423152400     0.0000000000     -1.560436721      0.450448231     -0.000000000
       H    -0.2650821800     0.8659347900     0.0000000000     -0.717631895      3.714620735     -0.000000000
