       3
Lattice="15.0 0.0 0.0 0.0 15.0 0.0 0.0 0.0 15.0" Properties=species:S:1:pos:R:3:forces:R:3 energy=        0.1485015676 pbc="T T T"
       O     0.0040977200     0.0062298800     0.0000000000      0.507046620     -0.107812320     -0.000000000
       H     0.9931584300    -0.0967860500     0.0000000000     -1.832425420      1.086972375     -0.000000000
       H    -0.3368810800     0.9268613300     0.0000000000      1.325378851     -0.979160004     -0.000000000
