       3
Lattice="15.0 0.0 0.0 0.0 15.0 0.0 0.0 0.0 15.0" Properties=species:S:1:pos:R:3:forces:R:3 energy=        0.1402102392 pbc="T T T"
       O    -0.0019746700    -0.0048664100     0.0000000000      1.002094409      2.732741428     -0.000000000
       H     0.9952895600     0.0113593600     0.0000000000     -1.700267878      0.010260866     -0.000000000
       H    -0.2426360700     0.9948216400     0.0000000000      0.698173469     -2.743002294     -0.000000000
