       3
Lattice="15.0 0.0 0.0 0.0 15.0 0.0 0.0 0.0 15.0" Properties=species:S:1:pos:R:3:forces:R:3 energy=        0.4025001358 pbc="T T T"
       O     0.0045704200    -0.0037420500     0.0000000000     -7.890814406      1.337569229     -0.000000000
       H     0.8588543000     0.0331000500     0.0000000000      8.117208528     -0.191926411     -0.000000000
       H    -0.2100756000     0.9552358700     0.0000000000     -0.226394122     -1.145642818     -0.000000000
