       3
Lattice="15.0 0.0 0.0 0.0 15.0 0.0 0.0 0.0 15.0" Properties=species:S:1:pos:R:3:forces:R:3 energy=        0.9695168746 pbc="T T T"
       O    -0.0066543000     0.0050461400     0.0000000000      4.596752248    -13.084371967     -0.000000000
       H     0.9787707600     0.0506240500     0.0000000000     -1.111880515     -0.809368539     -0.000000000
       H    -0.1518473200     0.7982371600     0.0000000000     -3.484871733     13.893740506     -0.000000000
