       3
Lattice="15.0 0.0 0.0 0.0 15.0 0.0 0.0 0.0 15.0" Properties=species:S:1:pos:R:3:forces:R:3 energy=        0.6743636075 pbc="T T T"
       O    -0.0019358400    -0.0146947600     0.0000000000      0.360635955      5.379416680     -0.000000000
       H     0.9889304700     0.0467877800     0.0000000000     -1.343877999     -0.192050390     -0.000000000
       H    -0.2368921800     1.1153762800     0.0000000000      0.983242044     -5.187366290     -0.000000000
