       3
Lattice="15.0 0.0 0.0 0.0 15.0 0.0 0.0 0.0 15.0" Properties=species:S:1:pos:R:3:forces:R:3 energy=        0.3107487328 pbc="T T T"
       O     0.0112942500     0.0059973600     0.0000000000     -5.703124326      1.634070733     -0.000000000
       H     0.9011376200    -0.1132871100     0.0000000000      3.805519816      0.576570722     -0.000000000
       H    -0.3590749400     0.9470525200     0.0000000000      1.897604510     -2.210641455     -0.000000000
