       3
Lattice="15.0 0.0 0.0 0.0 15.0 0.0 0.0 0.0 15.0" Properties=species:S:1:pos:R:3:forces:R:3 energy=        0.4047371349 pbc="T T T"
       O    -0.0022938800    -0.0084812900     0.0000000000     -4.173162596      0.393641993     -0.000000000
       H     0.8723959900     0.1221134500     0.0000000000      5.885752441     -0.914231237     -0.000000000
       H    -0.1146735200     0.9414371900     0.0000000000     -1.712589844      0.520589295     -0.000000000
