       3
Lattice="15.0 0.0 0.0 0.0 15.0 0.0 0.0 0.0 15.0" Properties=species:S:1:pos:R:3:forces:R:3 energy=        0.3212367030 pbc="T T T"
       O     0.0032518400     0.0115150000     0.0000000000      2.575291624     -2.859039371     -0.000000000
       H     1.0280480400    -0.1301073600     0.0000000000     -3.322301472      1.551032238     -0.000000000
       H    -0.3583469100     0.8763041700     0.0000000000      0.747009848      1.308007133     -0.000000000
