       3
Lattice="15.0 0.0 0.0 0.0 15.0 0.0 0.0 0.0 15.0" Properties=species:S:1:pos:R:3:forces:R:3 energy=        0.7418976035 pbc="T T T"
       O     0.0048336700    -0.0106110300     0.0000000000     -2.869688989      4.925527746     -0.000000000
       H     0.9463085200    -0.0164104600     0.0000000000      1.081213513      0.396437092     -0.000000000
       H    -0.3017089600     1.1137628400     0.0000000000      1.788475424     -5.321964838     -0.000000000
