       3
Lattice="15.0 0.0 0.0 0.0 15.0 0.0 0.0 0.0 15.0" Properties=species:S:1:pos:R:3:forces:R:3 energy=        0.6412760152 pbc="T T T"
       O     0.0003282100    -0.0160721300     0.0000000000     -3.412558908      5.224683865     -0.000000000
       H     0.9096310500     0.0848035800     0.0000000000      3.111327806     -0.329054155     -0.000000000
       H    -0.1935238500     1.0992197900     0.0000000000      0.301231103     -4.895629710     -0.000000000
