       3
Lattice="15.0 0.0 0.0 0.0 15.0 0.0 0.0 0.0 15.0" Properties=species:S:1:pos:R:3:forces:R:3 energy=        0.0824645842 pbc="T T T"
       O     0.0014034700     0.0026326300     0.0000000000     -1.117057536     -2.415707701     -0.000000000
       H     0.9280277800    -0.0016718200     0.0000000000      1.870423360     -0.102961674     -0.000000000
       H    -0.2289882800     0.8888372600     0.0000000000     -0.753365824      2.518669375     -0.000000000
