       3
Lattice="15.0 0.0 0.0 0.0 15.0 0.0 0.0 0.0 15.0" Properties=species:S:1:pos:R:3:forces:R:3 energy=        0.2311631214 pbc="T T T"
       O    -0.0105159000    -0.0067273500     0.0000000000      3.803982244      0.416552796     -0.000000000
       H     1.0234077800     0.1006507400     0.0000000000     -2.735601730     -1.166810463     -0.000000000
       H    -0.1351964900     0.9350643100     0.0000000000     -1.068380514      0.750257667     -0.000000000
