       3
Lattice="15.0 0.0 0.0 0.0 15.0 0.0 0.0 0.0 15.0" Properties=species:S:1:pos:R:3:forces:R:3 energy=        0.1805533557 pbc="T T T"
       O    -0.0079503600    -0.0065507600     0.0000000000      2.030486383     -0.419647171     -0.000000000
       H     0.9671452300     0.1121657900     0.0000000000     -0.497507462     -1.319212417     -0.000000000
       H    -0.1196506500     0.9207464000     0.0000000000     -1.532978920      1.738859640     -0.000000000
