       3
Lattice="15.0 0.0 0.0 0.0 15.0 0.0 0.0 0.0 15.0" Properties=species:S:1:pos:R:3:forces:R:3 energy=        0.2621108239 pbc="T T T"
       O     0.0107766400     0.0108097200     0.0000000000     -4.500397695     -1.637778317     -0.000000000
       H     0.8966807800    -0.1186108900     0.0000000000      3.877494335      0.500436207     -0.000000000
       H    -0.3464034100     0.8760005200     0.0000000000      0.622903411      1.137342110     -0.000000000
