       3
Lattice="15.0 0.0 0.0 0.0 15.0 0.0 0.0 0.0 15.0" Properties=species:S:1:pos:R:3:forces:R:3 energy=        0.3522992212 pbc="T T T"
       O     0.0052245600    -0.0014725300     0.0000000000     -7.545776879      0.643161194     -0.000000000
       H     0.8629175500     0.0147320600     0.0000000000      7.734743434     -0.183803984     -0.000000000
       H    -0.2245209700     0.9375850700     0.0000000000     -0.188966504     -0.459357261     -0.000000000
