       3
Lattice="15.0 0.0 0.0 0.0 15.0 0.0 0.0 0.0 15.0" Properties=species:S:1:pos:R:3:forces:R:3 energy=        0.6502217801 pbc="T T T"
       O     0.0069903300    -0.0072970100     0.0000000000     -9.315761126      3.829833825     -0.000000000
       H     0.8580828200     0.0150777800     0.0000000000      8.475289423      0.077519208     -0.000000000
       H    -0.2477102600     1.0296781400     0.0000000000      0.840471703     -3.907352982     -0.000000000
