       3
Lattice="15.0 0.0 0.0 0.0 15.0 0.0 0.0 0.0 15.0" Properties=species:S:1:pos:R:3:forces:R:3 energy=        0.0759807068 pbc="T T T"
       O     0.0033886300     0.0068393700     0.0000000000      0.037589803     -2.735758671     -0.000000000
       H     0.9537657200    -0.0593783700     0.0000000000      0.122861457      0.519465311     -0.000000000
       H    -0.2862336800     0.8797802500     0.0000000000     -0.160451260      2.216293360     -0.000000000
