       3
Lattice="15.0 0.0 0.0 0.0 15.0 0.0 0.0 0.0 15.0" Properties=species:S:1:pos:R:3:forces:R:3 energy=        0.2127288360 pbc="T T T"
       O    -0.0078300700    -0.0076920300     0.0000000000      1.439886224     -0.139882116     -0.000000000
       H     0.9517529400     0.1262319700     0.0000000000      0.260565539     -1.452845259     -0.000000000
       H    -0.1061670100     0.9247928500     0.0000000000     -1.700451763      1.592727427     -0.000000000
