       3
Lattice="15.0 0.0 0.0 0.0 15.0 0.0 0.0 0.0 15.0" Properties=species:S:1:pos:R:3:forces:R:3 energy=        0.3113400389 pbc="T T T"
       O     0.0009060500     0.0082960800     0.0000000000      2.778925919     -1.608267696     -0.000000000
       H     1.0461618800    -0.1051209700     0.0000000000     -3.760811396      1.336432132     -0.000000000
       H    -0.3392307600     0.9024044400     0.0000000000      0.981885529      0.271835564     -0.000000000
