       3
Lattice="15.0 0.0 0.0 0.0 15.0 0.0 0.0 0.0 15.0" Properties=species:S:1:pos:R:3:forces:R:3 energy=        0.1309705451 pbc="T T T"
       O    -0.0034320400    -0.0087681400     0.0000000000     -0.738006663      2.429747730     -0.000000000
       H     0.9335178400     0.0895814000     0.0000000000      1.397840852     -0.814554405     -0.000000000
       H    -0.1577328500     0.9785223100     0.0000000000     -0.659834189     -1.615193377     -0.000000000
