       3
Lattice="15.0 0.0 0.0 0.0 15.0 0.0 0.0 0.0 15.0" Properties=species:S:1:pos:R:3:forces:R:3 energy=        0.1765532983 pbc="T T T"
       O    -0.0030504600     0.0016955500     0.0000000000      1.595083535     -4.272555115     -0.000000000
       H     0.9590528200     0.0320793900     0.0000000000     -0.080135770     -0.454499520     -0.000000000
       H    -0.1893254300     0.8699582200     0.0000000000     -1.514947765      4.727054635     -0.000000000
