       3
Lattice="15.0 0.0 0.0 0.0 15.0 0.0 0.0 0.0 15.0" Properties=species:S:1:pos:R:3:forces:R:3 energy=        0.7214424210 pbc="T T T"
       O    -0.0060917400     0.0056753000     0.0000000000      4.925055846    -10.792313972     -0.000000000
       H     0.9983598600     0.0264972500     0.0000000000     -2.013224039     -0.432747720     -0.000000000
       H    -0.1803652100     0.8123789500     0.0000000000     -2.911831755     11.225061641     -0.000000000
