       3
Lattice="15.0 0.0 0.0 0.0 15.0 0.0 0.0 0.0 15.0" Properties=species:S:1:pos:R:3:forces:R:3 energy=        0.5288669334 pbc="T T T"
       O    -0.0000731700     0.0110123400     0.0000000000      4.157133098     -9.531176632     -0.000000000
       H     0.9872816900    -0.0558901100     0.0000000000     -1.741618487      0.566761136     -0.000000000
       H    -0.2648084200     0.8100640000     0.0000000000     -2.415514611      8.964415496     -0.000000000
