       3
Lattice="15.0 0.0 0.0 0.0 15.0 0.0 0.0 0.0 15.0" Properties=species:S:1:pos:R:3:forces:R:3 energy=        0.1917817750 pbc="T T T"
       O     0.0064709000     0.0050138500     0.0000000000     -1.150845859      1.135277205     -0.000000000
       H     0.9694759200    -0.1038114400     0.0000000000     -0.667774376      1.053792273     -0.000000000
       H    -0.3508628800     0.9531859700     0.0000000000      1.818620235     -2.189069478     -0.000000000
