       3
Lattice="15.0 0.0 0.0 0.0 15.0 0.0 0.0 0.0 15.0" Properties=species:S:1:pos:R:3:forces:R:3 energy=        0.0044667245 pbc="T T T"
       O     0.0007190000    -0.0000282600     0.0000000000     -0.296311089      0.467569832     -0.000000000
       H     0.9583556200    -0.0084022300     0.0000000000      0.043222373      0.099838451     -0.000000000
       H    -0.2484531600     0.9377981700     0.0000000000      0.253088665     -0.567408283     -0.000000000
