       3
Lattice="15.0 0.0 0.0 0.0 15.0 0.0 0.0 0.0 15.0" Properties=species:S:1:pos:R:3:forces:R:3 energy=        0.3935618023 pbc="T T T"
       O    -0.0040747500     0.0007931600     0.0000000000      3.264554056      1.070567598     -0.000000000
       H     1.0789005200    -0.0455182700     0.0000000000     -4.409170129      0.725344540     -0.000000000
       H    -0.2929187200     0.9618784100     0.0000000000      1.144616021     -1.795912138     -0.000000000
