       3
Lattice="15.0 0.0 0.0 0.0 15.0 0.0 0.0 0.0 15.0" Properties=species:S:1:pos:R:3:forces:R:3 energy=        0.3644129003 pbc="T T T"
       O    -0.0001562900     0.0023991700     0.0000000000     -1.480148125     -5.598434046     -0.000000000
       H     0.9051054400     0.0360859800     0.0000000000      3.515990375     -0.554759375     -0.000000000
       H    -0.1813105300     0.8547844700     0.0000000000     -2.035842250      6.153193421     -0.000000000
