       3
Lattice="15.0 0.0 0.0 0.0 15.0 0.0 0.0 0.0 15.0" Properties=species:S:1:pos:R:3:forces:R:3 energy=        0.0957975348 pbc="T T T"
       O    -0.0005005000     0.0045270200     0.0000000000      2.187290120     -1.607328317     -0.000000000
       H     1.0075413600    -0.0459205900     0.0000000000     -2.382650858      0.577232730     -0.000000000
       H    -0.2782855800     0.9030213000     0.0000000000      0.195360738      1.030095587     -0.000000000
