       3
Lattice="15.0 0.0 0.0 0.0 15.0 0.0 0.0 0.0 15.0" Properties=species:S:1:pos:R:3:forces:R:3 energy=        0.6880098128 pbc="T T T"
       O    -0.0031737200     0.0121466400     0.0000000000      5.726266990     -6.529196713     -0.000000000
       H     1.0894541800    -0.1005923800     0.0000000000     -4.890645727      1.361815617     -0.000000000
       H    -0.3177739900     0.8367646500     0.0000000000     -0.835621263      5.167381045     -0.000000000
