       3
Lattice="15.0 0.0 0.0 0.0 15.0 0.0 0.0 0.0 15.0" Properties=species:S:1:pos:R:3:forces:R:3 energy=        0.1783810626 pbc="T T T"
       O     0.0069977400     0.0024928800     0.0000000000     -5.334120249      0.706279801     -0.000000000
       H     0.8937999200    -0.0435964400     0.0000000000      4.684659181      0.155601437     -0.000000000
       H    -0.2835465700     0.9329800400     0.0000000000      0.649461017     -0.861881238     -0.000000000
