       3
Lattice="15.0 0.0 0.0 0.0 15.0 0.0 0.0 0.0 15.0" Properties=species:S:1:pos:R:3:forces:R:3 energy=        0.4537348137 pbc="T T T"
       O    -0.0084034100    -0.0022372700     0.0000000000      2.757454729     -5.511493386     -0.000000000
       H     0.9658106300     0.1051937800     0.0000000000     -0.402097327     -1.398575056     -0.000000000
       H    -0.1111260800     0.8592601800     0.0000000000     -2.355357402      6.910068442     -0.000000000
