       3
Lattice="15.0 0.0 0.0 0.0 15.0 0.0 0.0 0.0 15.0" Properties=species:S:1:pos:R:3:forces:R:3 energy=        0.2917774878 pbc="T T T"
       O    -0.0055434100    -0.0084692000     0.0000000000     -0.966216345     -0.001506256     -0.000000000
       H     0.9088511500     0.1338142000     0.0000000000      2.855176801     -1.354101018     -0.000000000
       H    -0.0995560600     0.9295446600     0.0000000000     -1.888960457      1.355607223     -0.000000000
