       3
Lattice="15.0 0.0 0.0 0.0 15.0 0.0 0.0 0.0 15.0" Properties=species:S:1:pos:R:3:forces:R:3 energy=        0.7774771492 pbc="T T T"
       O     0.0140119500     0.0017954400     0.0000000000     -6.743152089      3.806808557     -0.000000000
       H     0.9039912300    -0.1357557600     0.0000000000      3.738500227      0.762755600     -0.000000000
       H    -0.4050609300     1.0362088800     0.0000000000      3.004651862     -4.569564156     -0.000000000
