       3
Lattice="15.0 0.0 0.0 0.0 15.0 0.0 0.0 0.0 15.0" Properties=species:S:1:pos:R:3:forces:R:3 energy=        0.1012824794 pbc="T T T"
       O     0.0001588700    -0.0037897300     0.0000000000     -0.189765758      2.546766558     -0.000000000
       H     0.9715698300     0.0000918900     0.0000000000     -0.589818388      0.104140937     -0.000000000
       H    -0.2527775500     0.9890013500     0.0000000000      0.779584146     -2.650907495     -0.000000000
