       3
Lattice="15.0 0.0 0.0 0.0 15.0 0.0 0.0 0.0 15.0" Properties=species:S:1:pos:R:3:forces:R:3 energy=        0.3925035814 pbc="T T T"
       O    -0.0035162300    -0.0145353800     0.0000000000     -2.151723776      4.079600417     -0.000000000
       H     0.9058520200     0.1302746200     0.0000000000      3.007343449     -0.936131030     -0.000000000
       H    -0.1287296800     1.0293590300     0.0000000000     -0.855619673     -3.143469387     -0.000000000
