       3
Lattice="15.0 0.0 0.0 0.0 15.0 0.0 0.0 0.0 15.0" Properties=species:S:1:pos:R:3:forces:R:3 energy=        0.3388022921 pbc="T T T"
       O     0.0091027700     0.0021833700     0.0000000000     -3.851412949      2.665052323     -0.000000000
       H     0.9325612900    -0.0986626900     0.0000000000      1.651741368      0.807700407     -0.000000000
       H    -0.3557177500     0.9929589700     0.0000000000      2.199671530     -3.472752730     -0.000000000
