       3
Lattice="15.0 0.0 0.0 0.0 15.0 0.0 0.0 0.0 15.0" Properties=species:S:1:pos:R:3:forces:R:3 energy=        0.3414399816 pbc="T T T"
       O    -0.0047651300    -0.0024290000     0.0000000000      0.132036854     -4.138188532     -0.000000000
       H     0.9235327400     0.0937896000     0.0000000000      2.037540928     -1.143351038     -0.000000000
       H    -0.1265905500     0.8737071200     0.0000000000     -2.169577782      5.281539570     -0.000000000
