       3
Lattice="15.0 0.0 0.0 0.0 15.0 0.0 0.0 0.0 15.0" Properties=species:S:1:pos:R:3:forces:R:3 energy=        0.6532797875 pbc="T T T"
       O    -0.0091589800     0.0055459100     0.0000000000      6.166910572     -6.399058260     -0.000000000
       H     1.0934386200    -0.0091253300     0.0000000000     -4.793528224      0.229487109     -0.000000000
       H    -0.2267656000     0.8500555400     0.0000000000     -1.373382347      6.169571202     -0.000000000
