       3
Lattice="15.0 0.0 0.0 0.0 15.0 0.0 0.0 0.0 15.0" Properties=species:S:1:pos:R:3:forces:R:3 energy=        0.6897835843 pbc="T T T"
       O    -0.0070978700    -0.0170037300     0.0000000000      2.264894329      5.665287799     -0.000000000
       H     1.0193293100     0.0940747300     0.0000000000     -2.605127336     -0.761731734     -0.000000000
       H    -0.1853645900     1.1047341800     0.0000000000      0.340233008     -4.903556065     -0.000000000
