       3
Lattice="15.0 0.0 0.0 0.0 15.0 0.0 0.0 0.0 15.0" Properties=species:S:1:pos:R:3:forces:R:3 energy=        0.1570006141 pbc="T T T"
       O    -0.0027639400    -0.0090196600     0.0000000000     -1.432630619      2.521425342     -0.000000000
       H     0.9227858500     0.0904739200     0.0000000000      2.096504013     -0.777024509     -0.000000000
       H    -0.1576040600     0.9816215600     0.0000000000     -0.663873342     -1.744400833     -0.000000000
