       3
Lattice="15.0 0.0 0.0 0.0 15.0 0.0 0.0 0.0 15.0" Properties=species:S:1:pos:R:3:forces:R:3 energy=        0.7276193539 pbc="T T T"
       O    -0.0008581100     0.0134619100     0.0000000000      5.906869744    -10.699997647     -0.000000000
       H     1.0235798100    -0.0821213800     0.0000000000     -3.247853294      0.994684487     -0.000000000
       H    -0.2886496300     0.7974190200     0.0000000000     -2.659016450      9.705313161     -0.000000000
