       3
Lattice="15.0 0.0 0.0 0.0 15.0 0.0 0.0 0.0 15.0" Properties=species:S:1:pos:R:3:forces:R:3 energy=        0.3468238523 pbc="T T T"
       O    -0.0026572200    -0.0049872600     0.0000000000      1.912197841      3.222774433     -0.000000000
       H     1.0350501400    -0.0107230800     0.0000000000     -3.143638823      0.315444682     -0.000000000
       H    -0.2715646200     1.0188224200     0.0000000000      1.231440982     -3.538219115     -0.000000000
