       3
Lattice="15.0 0.0 0.0 0.0 15.0 0.0 0.0 0.0 15.0" Properties=species:S:1:pos:R:3:forces:R:3 energy=        0.2658597066 pbc="T T T"
       O     0.0097190000     0.0074967000     0.0000000000     -5.898636707     -0.768397322     -0.000000000
       H     0.8838848900    -0.0852010100     0.0000000000      5.334304854      0.214354977     -0.000000000
       H    -0.3168211600     0.8951704800     0.0000000000      0.564331854      0.554042294     -0.000000000
