       3
Lattice="15.0 0.0 0.0 0.0 15.0 0.0 0.0 0.0 15.0" Properties=species:S:1:pos:R:3:forces:R:3 energy=        0.6759506572 pbc="T T T"
       O    -0.0011602800    -0.0116370100     0.0000000000     -6.884593477      1.457394468     -0.000000000
       H     0.8420722700     0.1416336600     0.0000000000      8.639466059     -0.581780499     -0.000000000
       H    -0.1023403200     0.9720004000     0.0000000000     -1.754872581     -0.875614020     -0.000000000
