       3
Lattice="15.0 0.0 0.0 0.0 15.0 0.0 0.0 0.0 15.0" Properties=species:S:1:pos:R:3:forces:R:3 energy=        1.1472878416 pbc="T T T"
       O     0.0179743900     0.0064783800     0.0000000000    -15.786367872      3.862731722     -0.000000000
       H     0.8148244700    -0.1301046200     0.0000000000     13.465010240     -0.977646858     -0.000000000
       H    -0.3787808600     0.9562355600     0.0000000000      2.321357632     -2.885084864     -0.000000000
