       3
Lattice="15.0 0.0 0.0 0.0 15.0 0.0 0.0 0.0 15.0" Properties=species:S:1:pos:R:3:forces:R:3 energy=        0.3452741339 pbc="T T T"
       O    -0.0102450000    -0.0042412800     0.0000000000      3.605355792     -3.093169895     -0.000000000
       H     0.9952828600     0.1113182300     0.0000000000     -1.701937553     -1.424439749     -0.000000000
       H    -0.1113707500     0.8849408400     0.0000000000     -1.903418239      4.517609644     -0.000000000
