       3
Lattice="15.0 0.0 0.0 0.0 15.0 0.0 0.0 0.0 15.0" Properties=species:S:1:pos:R:3:forces:R:3 energy=        0.6696505546 pbc="T T T"
       O    -0.0044404800     0.0061340100     0.0000000000      4.128256150    -10.670615632     -0.000000000
       H     0.9790978000     0.0196591700     0.0000000000     -1.181947068     -0.376197359     -0.000000000
       H    -0.1873100400     0.8119368900     0.0000000000     -2.946309082     11.046812991     -0.000000000
