       3
Lattice="15.0 0.0 0.0 0.0 15.0 0.0 0.0 0.0 15.0" Properties=species:S:1:pos:R:3:forces:R:3 energy=        0.1794412590 pbc="T T T"
       O     0.0060055100     0.0114464700     0.0000000000      0.489713622     -3.630470906     -0.000000000
       H     0.9617034800    -0.1123095900     0.0000000000     -0.549032343      1.047338956     -0.000000000
       H    -0.3357047100     0.8595937100     0.0000000000      0.059318720      2.583131950     -0.000000000
