       3
Lattice="15.0 0.0 0.0 0.0 15.0 0.0 0.0 0.0 15.0" Properties=species:S:1:pos:R:3:forces:R:3 energy=        0.5664758390 pbc="T T T"
       O     0.0144384600     0.0124927200     0.0000000000     -8.572937344     -1.116264556     -0.000000000
       H     0.8530195200    -0.1351383000     0.0000000000      7.929079433     -0.166596405     -0.000000000
       H    -0.3608584000     0.8658173900     0.0000000000      0.643857860      1.282860961     -0.000000000
