       3
Lattice="15.0 0.0 0.0 0.0 15.0 0.0 0.0 0.0 15.0" Properties=species:S:1:pos:R:3:forces:R:3 energy=        0.4350415548 pbc="T T T"
       O    -0.0126938300    -0.0064245300     0.0000000000      4.119170124     -2.351232322     -0.000000000
       H     1.0080835200     0.1384369800     0.0000000000     -2.120930378     -1.767644285     -0.000000000
       H    -0.0853059700     0.8924718400     0.0000000000     -1.998239797      4.118876556     -0.000000000
