       3
Lattice="15.0 0.0 0.0 0.0 15.0 0.0 0.0 0.0 15.0" Properties=species:S:1:pos:R:3:forces:R:3 energy=        0.4182661870 pbc="T T T"
       O     0.0116413200     0.0061302000     0.0000000000     -8.530919894      0.915883994     -0.000000000
       H     0.8645488600    -0.0895709700     0.0000000000      7.380378351      0.029751946     -0.000000000
       H    -0.3279938100     0.9212276900     0.0000000000      1.150541543     -0.945635940     -0.000000000
