       3
Lattice="15.0 0.0 0.0 0.0 15.0 0.0 0.0 0.0 15.0" Properties=species:S:1:pos:R:3:forces:R:3 energy=        1.3390232565 pbc="T T T"
       O     0.0034675300     0.0199953000     0.0000000000      7.746338704    -16.798669669     -0.000000000
       H     0.9872203200    -0.1277830900     0.0000000000     -2.177806241      1.349609402     -0.000000000
       H    -0.3209424100     0.7393911900     0.0000000000     -5.568532462     15.449060267     -0.000000000
