       3
Lattice="15.0 0.0 0.0 0.0 15.0 0.0 0.0 0.0 15.0" Properties=species:S:1:pos:R:3:forces:R:3 energy=        1.0847554670 pbc="T T T"
       O    -0.0109498600     0.0032500600     0.0000000000      5.981633088    -12.622604861     -0.000000000
       H     1.0244112300     0.0737809900     0.0000000000     -2.828351030     -1.065341520     -0.000000000
       H    -0.1293135600     0.8035853500     0.0000000000     -3.153282058     13.687946381     -0.000000000
