       3
Lattice="15.0 0.0 0.0 0.0 15.0 0.0 0.0 0.0 15.0" Properties=species:S:1:pos:R:3:forces:R:3 energy=        0.2883920349 pbc="T T T"
       O     0.0089053900     0.0076362700     0.0000000000     -5.713783199     -1.785555010     -0.000000000
       H     0.8805720200    -0.0730412900     0.0000000000      5.669789649      0.113124633     -0.000000000
       H    -0.3005953200     0.8807955600     0.0000000000      0.043993550      1.672430377     -0.000000000
