       3
Lattice="15.0 0.0 0.0 0.0 15.0 0.0 0.0 0.0 15.0" Properties=species:S:1:pos:R:3:forces:R:3 energy=        0.5734536465 pbc="T T T"
       O    -0.0146019700    -0.0070974900     0.0000000000      5.229650673      1.522417698     -0.000000000
       H     1.1153148100     0.0808057800     0.0000000000     -4.862367950     -0.788758464     -0.000000000
       H    -0.1622551600     0.9607842600     0.0000000000     -0.367282723     -0.733659234     -0.000000000
