       3
Lattice="15.0 0.0 0.0 0.0 15.0 0.0 0.0 0.0 15.0" Properties=species:S:1:pos:R:3:forces:R:3 energy=        0.9359425060 pbc="T T T"
       O     0.0008654400    -0.0155131600     0.0000000000     -8.999846754      3.266878386     -0.000000000
       H     0.8288132000     0.1391783800     0.0000000000     10.134871374     -0.025849061     -0.000000000
       H    -0.1212308800     1.0359730700     0.0000000000     -1.135024619     -3.241029325     -0.000000000
