       3
Lattice="15.0 0.0 0.0 0.0 15.0 0.0 0.0 0.0 15.0" Properties=species:S:1:pos:R:3:forces:R:3 energy=        0.5357830990 pbc="T T T"
       O     0.0016040800    -0.0114765100     0.0000000000     -6.695861612      3.437671142     -0.000000000
       H     0.8634851300     0.0904323600     0.0000000000      7.107370673     -0.273673440     -0.000000000
       H    -0.1676269500     1.0206549500     0.0000000000     -0.411509060     -3.163997753     -0.000000000
