       3
Lattice="15.0 0.0 0.0 0.0 15.0 0.0 0.0 0.0 15.0" Properties=species:S:1:pos:R:3:forces:R:3 energy=        0.1516010996 pbc="T T T"
       O    -0.0068471900    -0.0062327000     0.0000000000      1.466476277     -0.313267985     -0.000000000
       H     0.9576491600     0.1049420200     0.0000000000     -0.017763657     -1.207215728     -0.000000000
       H    -0.1276629100     0.9229223400     0.0000000000     -1.448712620      1.520483713     -0.000000000
