       3
Lattice="15.0 0.0 0.0 0.0 15.0 0.0 0.0 0.0 15.0" Properties=species:S:1:pos:R:3:forces:R:3 energy=        0.1902830372 pbc="T T T"
       O     0.0010614400     0.0086481100     0.0000000000      2.651452981     -3.606516492     -0.000000000
       H     1.0081903600    -0.0786594000     0.0000000000     -2.532506493      0.928280934     -0.000000000
       H    -0.3037246100     0.8703554900     0.0000000000     -0.118946487      2.678235507     -0.000000000
