       3
Lattice="15.0 0.0 0.0 0.0 15.0 0.0 0.0 0.0 15.0" Properties=species:S:1:pos:R:3:forces:R:3 energy=        0.6132776841 pbc="T T T"
       O     0.0057852500    -0.0007067200     0.0000000000    -10.011927179     -0.720595710     -0.000000000
       H     0.8368705000     0.0256351000     0.0000000000     10.785721558     -0.259027247     -0.000000000
       H    -0.2073723300     0.9145278100     0.0000000000     -0.773794379      0.979622957     -0.000000000
