       3
Lattice="15.0 0.0 0.0 0.0 15.0 0.0 0.0 0.0 15.0" Properties=species:S:1:pos:R:3:forces:R:3 energy=        0.6126091901 pbc="T T T"
       O    -0.0028785500    -0.0133931300     0.0000000000      1.014661710      5.166115393     -0.000000000
       H     1.0045644300     0.0421642100     0.0000000000     -2.001387138     -0.181658706     -0.000000000
       H    -0.2375647400     1.0993420400     0.0000000000      0.986725427     -4.984456687     -0.000000000
