       3
Lattice="15.0 0.0 0.0 0.0 15.0 0.0 0.0 0.0 15.0" Properties=species:S:1:pos:R:3:forces:R:3 energy=        0.0693852682 pbc="T T T"
       O     0.0005863400     0.0031776300     0.0000000000      1.323631477     -0.244040023     -0.000000000
       H     0.9982056000    -0.0478134500     0.0000000000     -1.964128030      0.592816399     -0.000000000
       H    -0.2861987800     0.9263299800     0.0000000000      0.640496553     -0.348776325     -0.000000000
