       3
Lattice="15.0 0.0 0.0 0.0 15.0 0.0 0.0 0.0 15.0" Properties=species:S:1:pos:R:3:forces:R:3 energy=        0.7646220279 pbc="T T T"
       O     0.0064736100    -0.0055588700     0.0000000000     -1.836706051      4.211016812     -0.000000000
       H     0.9761887700    -0.0757430200     0.0000000000     -0.627103413      0.912610927     -0.000000000
       H    -0.3576178300     1.0929144400     0.0000000000      2.463809464     -5.123627739     -0.000000000
