       3
Lattice="15.0 0.0 0.0 0.0 15.0 0.0 0.0 0.0 15.0" Properties=species:S:1:pos:R:3:forces:R:3 energy=        0.6765246378 pbc="T T T"
       O    -0.0104083800    -0.0017389600     0.0000000000      3.777373474     -7.525392546     -0.000000000
       H     0.9822477600     0.1155690600     0.0000000000     -1.129520245     -1.597152297     -0.000000000
       H    -0.0957425900     0.8409763300     0.0000000000     -2.647853229      9.122544843     -0.000000000
