       3
Lattice="15.0 0.0 0.0 0.0 15.0 0.0 0.0 0.0 15.0" Properties=species:S:1:pos:R:3:forces:R:3 energy=        0.2169140778 pbc="T T T"
       O    -0.0086678200    -0.0112792400     0.0000000000      2.232698188      2.945513273     -0.000000000
       H     0.9840751200     0.1227607400     0.0000000000     -1.297582642     -1.306243921     -0.000000000
       H    -0.1251935000     0.9851960200     0.0000000000     -0.935115546     -1.639269352     -0.000000000
