       3
Lattice="15.0 0.0 0.0 0.0 15.0 0.0 0.0 0.0 15.0" Properties=species:S:1:pos:R:3:forces:R:3 energy=        0.4661800200 pbc="T T T"
       O     0.0096964600     0.0016487500     0.0000000000     -9.481115533      1.712762777     -0.000000000
       H     0.8566097000    -0.0453165800     0.0000000000      8.584081436     -0.057666837     -0.000000000
       H    -0.2891870800     0.9480970100     0.0000000000      0.897034097     -1.655095939     -0.000000000
