       3
Lattice="15.0 0.0 0.0 0.0 15.0 0.0 0.0 0.0 15.0" Properties=species:S:1:pos:R:3:forces:R:3 energy=        0.6124813728 pbc="T T T"
       O    -0.0057594000    -0.0182960300     0.0000000000      0.880180970      5.715006427     -0.000000000
       H     0.9723461900     0.1181348400     0.0000000000     -0.813337347     -0.940951336     -0.000000000
       H    -0.1596234300     1.1011834500     0.0000000000     -0.066843623     -4.774055091     -0.000000000
