       3
Lattice="15.0 0.0 0.0 0.0 15.0 0.0 0.0 0.0 15.0" Properties=species:S:1:pos:R:3:forces:R:3 energy=        0.9016512071 pbc="T T T"
       O     0.0014980700    -0.0103217000     0.0000000000    -10.322028489      1.007554201     -0.000000000
       H     0.8182140700     0.1232540600     0.0000000000     11.892857614     -0.078429636     -0.000000000
       H    -0.1206726100     0.9695050800     0.0000000000     -1.570829125     -0.929124565     -0.000000000
