       3
Lattice="15.0 0.0 0.0 0.0 15.0 0.0 0.0 0.0 15.0" Properties=species:S:1:pos:R:3:forces:R:3 energy=        0.3691146850 pbc="T T T"
       O    -0.0096797200    -0.0064778700     0.0000000000      4.032946339      2.337858466     -0.000000000
       H     1.0745504900     0.0498460700     0.0000000000     -4.181749159     -0.417914556     -0.000000000
       H    -0.1996112900     0.9819101600     0.0000000000      0.148802820     -1.919943910     -0.000000000
