       3
Lattice="15.0 0.0 0.0 0.0 15.0 0.0 0.0 0.0 15.0" Properties=species:S:1:pos:R:3:forces:R:3 energy=        0.6742710398 pbc="T T T"
       O    -0.0095336100     0.0046397700     0.0000000000      6.165158158     -7.824192824     -0.000000000
       H     1.0687692100     0.0175031900     0.0000000000     -4.221867644     -0.168606546     -0.000000000
       H    -0.1961499100     0.8378079800     0.0000000000     -1.943290515      7.992799370     -0.000000000
