       3
Lattice="15.0 0.0 0.0 0.0 15.0 0.0 0.0 0.0 15.0" Properties=species:S:1:pos:R:3:forces:R:3 energy=        0.3957460875 pbc="T T T"
       O    -0.0031512900    -0.0071972700     0.0000000000      1.836758502      3.799141215     -0.000000000
       H     1.0309735900     0.0054950700     0.0000000000     -2.987334394      0.147085734     -0.000000000
       H    -0.2596463800     1.0376786900     0.0000000000      1.150575893     -3.946226948     -0.000000000
