       3
Lattice="15.0 0.0 0.0 0.0 15.0 0.0 0.0 0.0 15.0" Properties=species:S:1:pos:R:3:forces:R:3 energy=        0.1502532652 pbc="T T T"
       O     0.0061436800     0.0021895100     0.0000000000     -4.851388974      0.414150407     -0.000000000
       H     0.8968923800    -0.0345164900     0.0000000000      4.406920001      0.114881726     -0.000000000
       H    -0.2730842700     0.9287147200     0.0000000000      0.444468973     -0.529032133     -0.000000000
