       3
Lattice="15.0 0.0 0.0 0.0 15.0 0.0 0.0 0.0 15.0" Properties=species:S:1:pos:R:3:forces:R:3 energy=        0.5142959165 pbc="T T T"
       O    -0.0128801200    -0.0082703100     0.0000000000      4.725495826      2.549752484     -0.000000000
       H     1.0990209000     0.0759339300     0.0000000000     -4.609771189     -0.716826265     -0.000000000
       H    -0.1732882600     0.9842695500     0.0000000000     -0.115724637     -1.832926219     -0.000000000
