       3
Lattice="15.0 0.0 0.0 0.0 15.0 0.0 0.0 0.0 15.0" Properties=species:S:1:pos:R:3:forces:R:3 energy=        0.6408873006 pbc="T T T"
       O     0.0080237000    -0.0061385500     0.0000000000     -5.148559121      4.435287510     -0.000000000
       H     0.9167825400    -0.0468895000     0.0000000000      3.117098855      0.482722430     -0.000000000
       H    -0.3228119800     1.0732604500     0.0000000000      2.031460266     -4.918009940     -0.000000000
