       3
Lattice="15.0 0.0 0.0 0.0 15.0 0.0 0.0 0.0 15.0" Properties=species:S:1:pos:R:3:forces:R:3 energy=        0.4087024216 pbc="T T T"
       O    -0.0081391600     0.0013740100     0.0000000000      4.456291427     -5.958239895     -0.000000000
       H     1.0153182400     0.0521142600     0.0000000000     -2.568481489     -0.684883790     -0.000000000
       H    -0.1648289700     0.8550265700     0.0000000000     -1.887809939      6.643123685     -0.000000000
