       3
Lattice="15.0 0.0 0.0 0.0 15.0 0.0 0.0 0.0 15.0" Properties=species:S:1:pos:R:3:forces:R:3 energy=        0.1773587417 pbc="T T T"
       O    -0.0052873700    -0.0100024200     0.0000000000      1.203795902      3.467906249     -0.000000000
       H     0.9786912100     0.0812575100     0.0000000000     -1.014617590     -0.753452675     -0.000000000
       H    -0.1734609400     1.0064352900     0.0000000000     -0.189178312     -2.714453625     -0.000000000
