       3
Lattice="15.0 0.0 0.0 0.0 15.0 0.0 0.0 0.0 15.0" Properties=species:S:1:pos:R:3:forces:R:3 energy=        0.4485490664 pbc="T T T"
       O     0.0005169700    -0.0123905100     0.0000000000     -2.243819295      4.814219753     -0.000000000
       H     0.9340160900     0.0519410300     0.0000000000      1.585220419     -0.215365473     -0.000000000
       H    -0.2209055300     1.0736525100     0.0000000000      0.658598876     -4.598854331     -0.000000000
