       3
Lattice="15.0 0.0 0.0 0.0 15.0 0.0 0.0 0.0 15.0" Properties=species:S:1:pos:R:3:forces:R:3 energy=        0.1954705559 pbc="T T T"
       O     0.0074406500     0.0074060400     0.0000000000     -1.109943702      0.407378273     -0.000000000
       H     0.9673827400    -0.1216749000     0.0000000000     -0.671913340      1.190178305     -0.000000000
       H    -0.3641607500     0.9330837500     0.0000000000      1.781857042     -1.597556629     -0.000000000
