       3
Lattice="15.0 0.0 0.0 0.0 15.0 0.0 0.0 0.0 15.0" Properties=species:S:1:pos:R:3:forces:R:3 energy=        0.5356395807 pbc="T T T"
       O    -0.0056872000     0.0052126900     0.0000000000      4.628250333     -8.724275736     -0.000000000
       H     1.0043148800     0.0183451600     0.0000000000     -2.254207430     -0.292991587     -0.000000000
       H    -0.1927407900     0.8278730700     0.0000000000     -2.374042852      9.017267324     -0.000000000
