       3
Lattice="15.0 0.0 0.0 0.0 15.0 0.0 0.0 0.0 15.0" Properties=species:S:1:pos:R:3:forces:R:3 energy=        0.1972008490 pbc="T T T"
       O     0.0052666400     0.0116192200     0.0000000000      1.174055783     -3.817264312     -0.000000000
       H     0.9747606800    -0.1138872200     0.0000000000     -1.219731350      1.142266083     -0.000000000
       H    -0.3370354300     0.8584296800     0.0000000000      0.045675618      2.674998229     -0.000000000
