       3
Lattice="15.0 0.0 0.0 0.0 15.0 0.0 0.0 0.0 15.0" Properties=species:S:1:pos:R:3:forces:R:3 energy=        0.6414798829 pbc="T T T"
       O     0.0058065500     0.0041062900     0.0000000000      0.350049176      2.091674502     -0.000000000
       H     1.0309887900    -0.1405304700     0.0000000000     -3.131692855      1.662814446     -0.000000000
       H    -0.4018329700     1.0043091400     0.0000000000      2.781643730     -3.754488896     -0.000000000
