       3
Lattice="15.0 0.0 0.0 0.0 15.0 0.0 0.0 0.0 15.0" Properties=species:S:1:pos:R:3:forces:R:3 energy=        0.1226815542 pbc="T T T"
       O     0.0019340900     0.0044264400     0.0000000000      1.149417867     -0.005328202     -0.000000000
       H     1.0035116400    -0.0724784400     0.0000000000     -2.208133137      0.875608518     -0.000000000
       H    -0.3128953500     0.9311756000     0.0000000000      1.058715218     -0.870280264     -0.000000000
