       3
Lattice="15.0 0.0 0.0 0.0 15.0 0.0 0.0 0.0 15.0" Properties=species:S:1:pos:R:3:forces:R:3 energy=        0.5845961105 pbc="T T T"
       O    -0.0087427400     0.0019787300     0.0000000000      4.771336097     -8.038492882     -0.000000000
       H     1.0109537300     0.0610365300     0.0000000000     -2.398548459     -0.842804157     -0.000000000
       H    -0.1508848600     0.8365067500     0.0000000000     -2.372787690      8.881297040     -0.000000000
