       3
Lattice="15.0 0.0 0.0 0.0 15.0 0.0 0.0 0.0 15.0" Properties=species:S:1:pos:R:3:forces:R:3 energy=        0.3166279813 pbc="T T T"
       O    -0.0036446100    -0.0129103600     0.0000000000     -0.049967974      4.551246117     -0.000000000
       H     0.9575132200     0.0866202800     0.0000000000      0.030485533     -0.679180721     -0.000000000
       H    -0.1783545000     1.0472236100     0.0000000000      0.019482441     -3.872065345     -0.000000000
