       3
Lattice="15.0 0.0 0.0 0.0 15.0 0.0 0.0 0.0 15.0" Properties=species:S:1:pos:R:3:forces:R:3 energy=        0.3199386655 pbc="T T T"
       O     0.0122237500     0.0082656300     0.0000000000     -5.261888619      1.168694722     -0.000000000
       H     0.9052742000    -0.1351016400     0.0000000000      3.258090763      0.724419353     -0.000000000
       H    -0.3779638600     0.9328680200     0.0000000000      2.003797857     -1.893114076     -0.000000000
