       3
Lattice="15.0 0.0 0.0 0.0 15.0 0.0 0.0 0.0 15.0" Properties=species:S:1:pos:R:3:forces:R:3 energy=        0.4941985419 pbc="T T T"
       O    -0.0130263500    -0.0023428100     0.0000000000      5.481133271     -2.958231087     -0.000000000
       H     1.0762191500     0.0767646900     0.0000000000     -4.184606942     -0.888105063     -0.000000000
       H    -0.1481658300     0.8893649100     0.0000000000     -1.296526329      3.846336201     -0.000000000
