       3
Lattice="15.0 0.0 0.0 0.0 15.0 0.0 0.0 0.0 15.0" Properties=species:S:1:pos:R:3:forces:R:3 energy=        0.4362472885 pbc="T T T"
       O     0.0097279500    -0.0004388000     0.0000000000     -7.091554884      3.230632448     -0.000000000
       H     0.8888579400    -0.0641683200     0.0000000000      5.302391432      0.314413618     -0.000000000
       H    -0.3219355300     1.0000800000     0.0000000000      1.789163452     -3.545046117     -0.000000000
