       3
Lattice="15.0 0.0 0.0 0.0 15.0 0.0 0.0 0.0 15.0" Properties=species:S:1:pos:R:3:forces:R:3 energy=        0.7526106037 pbc="T T T"
       O    -0.0025027300     0.0102549000     0.0000000000      4.209996186     -2.189153348     -0.000000000
       H     1.1236424800    -0.1294488000     0.0000000000     -5.350947047      1.713076760     -0.000000000
       H    -0.3626120900     0.8956448400     0.0000000000      1.140950861      0.476076639     -0.000000000
