       3
Lattice="15.0 0.0 0.0 0.0 15.0 0.0 0.0 0.0 15.0" Properties=species:S:1:pos:R:3:forces:R:3 energy=        0.0077789761 pbc="T T T"
       O    -0.0013809400    -0.0003122200     0.0000000000      0.635334701     -0.530389368     -0.000000000
       H     0.9645049100     0.0135970500     0.0000000000     -0.319601284     -0.150522117     -0.000000000
       H    -0.2212743700     0.9203054100     0.0000000000     -0.315733417      0.680911537     -0.000000000
