       3
Lattice="15.0 0.0 0.0 0.0 15.0 0.0 0.0 0.0 15.0" Properties=species:S:1:pos:R:3:forces:R:3 energy=        0.5603332686 pbc="T T T"
       O    -0.0012167000    -0.0000207200     0.0000000000      2.310082774      2.302777598     -0.000000000
       H     1.0735290800    -0.0740053900     0.0000000000     -4.241947403      1.058188656     -0.000000000
       H    -0.3329074300     1.0032825300     0.0000000000      1.931864630     -3.360966254     -0.000000000
