       3
Lattice="15.0 0.0 0.0 0.0 15.0 0.0 0.0 0.0 15.0" Properties=species:S:1:pos:R:3:forces:R:3 energy=        0.0340270327 pbc="T T T"
       O    -0.0025267100    -0.0033695400     0.0000000000      0.992442381      1.365466174     -0.000000000
       H     0.9803705300     0.0250310800     0.0000000000     -1.075048365     -0.205693389     -0.000000000
       H    -0.2189554400     0.9573934000     0.0000000000      0.082605984     -1.159772836     -0.000000000
