       3
Lattice="15.0 0.0 0.0 0.0 15.0 0.0 0.0 0.0 15.0" Properties=species:S:1:pos:R:3:forces:R:3 energy=        0.5140444588 pbc="T T T"
       O    -0.0041583200     0.0082710300     0.0000000000      5.231957262     -8.106131182     -0.000000000
       H     1.0313593100    -0.0311342500     0.0000000000     -3.323748849      0.399719981     -0.000000000
       H    -0.2440510600     0.8288146700     0.0000000000     -1.908208361      7.706411201     -0.000000000
