       3
Lattice="15.0 0.0 0.0 0.0 15.0 0.0 0.0 0.0 15.0" Properties=species:S:1:pos:R:3:forces:R:3 energy=        0.3430950706 pbc="T T T"
       O    -0.0007071900    -0.0024846400     0.0000000000     -3.529673484     -2.538093606     -0.000000000
       H     0.8833032600     0.0751940400     0.0000000000      5.277964809     -0.749515235     -0.000000000
       H    -0.1507639700     0.8931856900     0.0000000000     -1.748291325      3.287608841     -0.000000000
