       3
Lattice="15.0 0.0 0.0 0.0 15.0 0.0 0.0 0.0 15.0" Properties=species:S:1:pos:R:3:forces:R:3 energy=        1.2002616046 pbc="T T T"
       O     0.0021952100     0.0189800700     0.0000000000      7.632041493    -15.289413609     -0.000000000
       H     1.0066405200    -0.1239843400     0.0000000000     -2.891730809      1.408524356     -0.000000000
       H    -0.3201699200     0.7517049500     0.0000000000     -4.740310735     13.880889304     -0.000000000
