       3
Lattice="15.0 0.0 0.0 0.0 15.0 0.0 0.0 0.0 15.0" Properties=species:S:1:pos:R:3:forces:R:3 energy=        0.4040535359 pbc="T T T"
       O    -0.0126993500    -0.0045396800     0.0000000000      5.054615389     -0.546474197     -0.000000000
       H     1.0775933600     0.0785898900     0.0000000000     -4.204326541     -0.860212025     -0.000000000
       H    -0.1547297400     0.9224056200     0.0000000000     -0.850288848      1.406686222     -0.000000000
