       3
Lattice="15.0 0.0 0.0 0.0 15.0 0.0 0.0 0.0 15.0" Properties=species:S:1:pos:R:3:forces:R:3 energy=        0.2604156171 pbc="T T T"
       O     0.0054234900     0.0096121700     0.0000000000      0.940854097     -0.857204707     -0.000000000
       H     1.0060839700    -0.1338193500     0.0000000000     -2.485590678      1.503522600     -0.000000000
       H    -0.3708485800     0.9102155500     0.0000000000      1.544736529     -0.646317893     -0.000000000
