       3
Lattice="15.0 0.0 0.0 0.0 15.0 0.0 0.0 0.0 15.0" Properties=species:S:1:pos:R:3:forces:R:3 energy=        0.6799163439 pbc="T T T"
       O     0.0016961200    -0.0147450500     0.0000000000     -2.931771903      5.291883534     -0.000000000
       H     0.9280454600     0.0494646300     0.0000000000      2.039472701     -0.092739478     -0.000000000
       H    -0.2336489400     1.1134973300     0.0000000000      0.892299254     -5.199144057     -0.000000000
