       3
Lattice="15.0 0.0 0.0 0.0 15.0 0.0 0.0 0.0 15.0" Properties=species:S:1:pos:R:3:forces:R:3 energy=        0.2021871042 pbc="T T T"
       O    -0.0082017100    -0.0066942800     0.0000000000      3.295436722      2.028168069     -0.000000000
       H     1.0331550900     0.0644574700     0.0000000000     -3.085053793     -0.639571469     -0.000000000
       H    -0.1816726100     0.9707331200     0.0000000000     -0.210382929     -1.388596600     -0.000000000
