       3
Lattice="15.0 0.0 0.0 0.0 15.0 0.0 0.0 0.0 15.0" Properties=species:S:1:pos:R:3:forces:R:3 energy=        0.1539526123 pbc="T T T"
       O     0.0041336400     0.0083917200     0.0000000000     -0.218490959     -4.206258418     -0.000000000
       H     0.9399229700    -0.0627020900     0.0000000000      0.904576174      0.461822693     -0.000000000
       H    -0.2842149100     0.8584670400     0.0000000000     -0.686085216      3.744435724     -0.000000000
