       3
Lattice="15.0 0.0 0.0 0.0 15.0 0.0 0.0 0.0 15.0" Properties=species:S:1:pos:R:3:forces:R:3 energy=        0.3641884118 pbc="T T T"
       O    -0.0033476600    -0.0120243100     0.0000000000     -3.006412246      2.566401568     -0.000000000
       H     0.8882496600     0.1339534500     0.0000000000      4.355139142     -0.991513235     -0.000000000
       H    -0.1138026300     0.9858276300     0.0000000000     -1.348726896     -1.574888333     -0.000000000
