       3
Lattice="15.0 0.0 0.0 0.0 15.0 0.0 0.0 0.0 15.0" Properties=species:S:1:pos:R:3:forces:R:3 energy=        0.4513909147 pbc="T T T"
       O    -0.0016921500    -0.0106638200     0.0000000000     -4.920501494      1.800214110     -0.000000000
       H     0.8666386800     0.1260455200     0.0000000000      6.356540009     -0.763948078     -0.000000000
       H    -0.1184660100     0.9721435600     0.0000000000     -1.436038515     -1.036266032     -0.000000000
