       3
Lattice="15.0 0.0 0.0 0.0 15.0 0.0 0.0 0.0 15.0" Properties=species:S:1:pos:R:3:forces:R:3 energy=        0.9515323117 pbc="T T T"
       O    -0.0112605300    -0.0027245200     0.0000000000      3.166078085     -9.173959474     -0.000000000
       H     0.9616480100     0.1451725500     0.0000000000     -0.113855084     -2.039948355     -0.000000000
       H    -0.0616178900     0.8270140600     0.0000000000     -3.052222950     11.213907830     -0.000000000
