       3
Lattice="15.0 0.0 0.0 0.0 15.0 0.0 0.0 0.0 15.0" Properties=species:S:1:pos:R:3:forces:R:3 energy=        0.0473393299 pbc="T T T"
       O     0.0039249600     0.0052631600     0.0000000000     -1.054133613     -1.586548291     -0.000000000
       H     0.9411906400    -0.0512567200     0.0000000000      0.949105542      0.403710695     -0.000000000
       H    -0.2821703900     0.8966740700     0.0000000000      0.105028071      1.182837596     -0.000000000
