       3
Lattice="15.0 0.0 0.0 0.0 15.0 0.0 0.0 0.0 15.0" Properties=species:S:1:pos:R:3:forces:R:3 energy=        0.4990146253 pbc="T T T"
       O    -0.0044563500     0.0005682900     0.0000000000      0.900500460     -7.084971983     -0.000000000
       H     0.9295087500     0.0758992400     0.0000000000      1.670534650     -1.031270325     -0.000000000
       H    -0.1374676900     0.8440284600     0.0000000000     -2.571035109      8.116242307     -0.000000000
