       3
Lattice="15.0 0.0 0.0 0.0 15.0 0.0 0.0 0.0 15.0" Properties=species:S:1:pos:R:3:forces:R:3 energy=        0.2539118891 pbc="T T T"
       O     0.0074061300     0.0009277000     0.0000000000     -3.415985676      2.578623107     -0.000000000
       H     0.9345701200    -0.0753566100     0.0000000000      1.572204049      0.656585393     -0.000000000
       H    -0.3307990400     0.9895811600     0.0000000000      1.843781628     -3.235208448     -0.000000000
