       3
Lattice="15.0 0.0 0.0 0.0 15.0 0.0 0.0 0.0 15.0" Properties=species:S:1:pos:R:3:forces:R:3 energy=        0.0270302915 pbc="T T T"
       O    -0.0019691500    -0.0027304600     0.0000000000      0.836544650      1.227268645     -0.000000000
       H     0.9783928400     0.0176816800     0.0000000000     -0.982155598     -0.129032621     -0.000000000
       H    -0.2258268500     0.9546001300     0.0000000000      0.145610948     -1.098236024     -0.000000000
