       3
Lattice="15.0 0.0 0.0 0.0 15.0 0.0 0.0 0.0 15.0" Properties=species:S:1:pos:R:3:forces:R:3 energy=        0.3601069107 pbc="T T T"
       O     0.0067817800    -0.0007412600     0.0000000000     -7.995339055      1.345021420     -0.000000000
       H     0.8644759400    -0.0079734500     0.0000000000      7.667208287     -0.081020692     -0.000000000
       H    -0.2507941700     0.9486849400     0.0000000000      0.328130768     -1.264000728     -0.000000000
