       3
Lattice="15.0 0.0 0.0 0.0 15.0 0.0 0.0 0.0 15.0" Properties=species:S:1:pos:R:3:forces:R:3 energy=        0.5649466870 pbc="T T T"
       O    -0.0154323900    -0.0065827500     0.0000000000      5.197885604     -2.283940761     -0.000000000
       H     1.0504382300     0.1397961700     0.0000000000     -3.361913603     -1.751938026     -0.000000000
       H    -0.0841976300     0.8936238900     0.0000000000     -1.835972001      4.035878787     -0.000000000
