       3
Lattice="15.0 0.0 0.0 0.0 15.0 0.0 0.0 0.0 15.0" Properties=species:S:1:pos:R:3:forces:R:3 energy=        0.3785894583 pbc="T T T"
       O     0.0085839600     0.0039149600     0.0000000000     -8.079727843     -0.235560058     -0.000000000
       H     0.8616756100    -0.0426806800     0.0000000000      7.874289096     -0.099878715     -0.000000000
       H    -0.2765967200     0.9094946800     0.0000000000      0.205438747      0.335438772     -0.000000000
