       3
Lattice="15.0 0.0 0.0 0.0 15.0 0.0 0.0 0.0 15.0" Properties=species:S:1:pos:R:3:forces:R:3 energy=        0.6181771023 pbc="T T T"
       O     0.0120251400     0.0036161000     0.0000000000     -3.971646583      3.007962159     -0.000000000
       H     0.9408142200    -0.1456010300     0.0000000000      0.980945276      1.194772457     -0.000000000
       H    -0.4103519800     1.0171590900     0.0000000000      2.990701307     -4.202734565     -0.000000000
