       3
Lattice="15.0 0.0 0.0 0.0 15.0 0.0 0.0 0.0 15.0" Properties=species:S:1:pos:R:3:forces:R:3 energy=        0.5367093283 pbc="T T T"
       O    -0.0024735600    -0.0018962700     0.0000000000      2.488709427      2.656818259     -0.000000000
       H     1.0731718700    -0.0523286200     0.0000000000     -4.211689978      0.818525270     -0.000000000
       H    -0.3126023400     1.0113720400     0.0000000000      1.722980551     -3.475343529     -0.000000000
