       3
Lattice="15.0 0.0 0.0 0.0 15.0 0.0 0.0 0.0 15.0" Properties=species:S:1:pos:R:3:forces:R:3 energy=        0.9319677225 pbc="T T T"
       O     0.0169916300     0.0046230800     0.0000000000    -11.700686331      4.035750900     -0.000000000
       H     0.8496941200    -0.1392241100     0.0000000000      8.884398923     -0.131750382     -0.000000000
       H    -0.3980535200     0.9948002300     0.0000000000      2.816287408     -3.904000570     -0.000000000
