       3
Lattice="15.0 0.0 0.0 0.0 15.0 0.0 0.0 0.0 15.0" Properties=species:S:1:pos:R:3:forces:R:3 energy=        0.3757950666 pbc="T T T"
       O    -0.0018077000    -0.0108156800     0.0000000000      0.187174393      4.565545109     -0.000000000
       H     0.9804074500     0.0396039700     0.0000000000     -0.987535119     -0.194595012     -0.000000000
       H    -0.2304030900     1.0609961100     0.0000000000      0.800360675     -4.370950097     -0.000000000
