       3
Lattice="15.0 0.0 0.0 0.0 15.0 0.0 0.0 0.0 15.0" Properties=species:S:1:pos:R:3:forces:R:3 energy=        0.4026857746 pbc="T T T"
       O    -0.0111093500    -0.0064938300     0.0000000000      3.181132158     -2.486391217     -0.000000000
       H     0.9796295500     0.1412233600     0.0000000000     -1.025086613     -1.798876518     -0.000000000
       H    -0.0819988200     0.8907851600     0.0000000000     -2.156045596      4.285267787     -0.000000000
