       3
Lattice="15.0 0.0 0.0 0.0 15.0 0.0 0.0 0.0 15.0" Properties=species:S:1:pos:R:3:forces:R:3 energy=        0.0633248490 pbc="T T T"
       O    -0.0012797100     0.0014078500     0.0000000000      0.636502239     -2.439756680     -0.000000000
       H     0.9535706000     0.0154203500     0.0000000000      0.249040821     -0.232059036     -0.000000000
       H    -0.2119466200     0.8911833000     0.0000000000     -0.885543060      2.671815716     -0.000000000
