       3
Lattice="15.0 0.0 0.0 0.0 15.0 0.0 0.0 0.0 15.0" Properties=species:S:1:pos:R:3:forces:R:3 energy=        0.3464865209 pbc="T T T"
       O     0.0020463300    -0.0092462400     0.0000000000     -4.893869789      3.596016873     -0.000000000
       H     0.8918681900     0.0559144800     0.0000000000      4.730854676     -0.238784325     -0.000000000
       H    -0.2030296600     1.0197770200     0.0000000000      0.163015165     -3.357232547     -0.000000000
