       3
Lattice="15.0 0.0 0.0 0.0 15.0 0.0 0.0 0.0 15.0" Properties=species:S:1:pos:R:3:forces:R:3 energy=        0.6625006378 pbc="T T T"
       O     0.0050907300    -0.0008915900     0.0000000000     -0.144634237      3.215555338     -0.000000000
       H     1.0155618200    -0.1039810700     0.0000000000     -2.464710019      1.270134971     -0.000000000
       H    -0.3750444100     1.0470795500     0.0000000000      2.609344308     -4.485690309     -0.000000000
