       3
Lattice="15.0 0.0 0.0 0.0 15.0 0.0 0.0 0.0 15.0" Properties=species:S:1:pos:R:3:forces:R:3 energy=        0.1932192028 pbc="T T T"
       O    -0.0006951000    -0.0017775900     0.0000000000      1.306402918      2.213173530     -0.000000000
       H     1.0142421100    -0.0288600000     0.0000000000     -2.479682280      0.465820298     -0.000000000
       H    -0.2818974700     0.9860195400     0.0000000000      1.173279361     -2.678993828     -0.000000000
