       3
Lattice="15.0 0.0 0.0 0.0 15.0 0.0 0.0 0.0 15.0" Properties=species:S:1:pos:R:3:forces:R:3 energy=        0.3591148326 pbc="T T T"
       O    -0.0107327800    -0.0025326400     0.0000000000      4.828447884     -0.664904201     -0.000000000
       H     1.0791449300     0.0468248900     0.0000000000     -4.318578089     -0.447782921     -0.000000000
       H    -0.1874930600     0.9223175200     0.0000000000     -0.509869795      1.112687122     -0.000000000
