       3
Lattice="15.0 0.0 0.0 0.0 15.0 0.0 0.0 0.0 15.0" Properties=species:S:1:pos:R:3:forces:R:3 energy=        0.9735121319 pbc="T T T"
       O     0.0131538200     0.0019407900     0.0000000000    -15.123061767      2.688825680     -0.000000000
       H     0.8173885800    -0.0583891800     0.0000000000     13.903730584     -0.472157967     -0.000000000
       H    -0.3048371400     0.9565346300     0.0000000000      1.219331235     -2.216667661     -0.000000000
