       3
Lattice="15.0 0.0 0.0 0.0 15.0 0.0 0.0 0.0 15.0" Properties=species:S:1:pos:R:3:forces:R:3 energy=        0.5380286778 pbc="T T T"
       O     0.0096791300     0.0008985000     0.0000000000     -3.378002494      3.261059668     -0.000000000
       H     0.9478109200    -0.1135588200     0.0000000000      0.721900391      1.035429755     -0.000000000
       H    -0.3801149500     1.0282470100     0.0000000000      2.656102052     -4.296489423     -0.000000000
