       3
Lattice="15.0 0.0 0.0 0.0 15.0 0.0 0.0 0.0 15.0" Properties=species:S:1:pos:R:3:forces:R:3 energy=        0.5706618971 pbc="T T T"
       O     0.0129112000     0.0086738200     0.0000000000     -9.933246963     -0.196714939     -0.000000000
       H     0.8466117300    -0.0993071500     0.0000000000      9.241580394     -0.272277485     -0.000000000
       H    -0.3302107800     0.8905948400     0.0000000000      0.691666569      0.468992475     -0.000000000
