       3
Lattice="15.0 0.0 0.0 0.0 15.0 0.0 0.0 0.0 15.0" Properties=species:S:1:pos:R:3:forces:R:3 energy=        0.4425185987 pbc="T T T"
       O    -0.0096004000    -0.0131039500     0.0000000000      3.247486140      4.491547439     -0.000000000
       H     1.0370488000     0.0988681500     0.0000000000     -3.160946469     -0.945967612     -0.000000000
       H    -0.1633670700     1.0380484700     0.0000000000     -0.086539671     -3.545579827     -0.000000000
