       3
Lattice="15.0 0.0 0.0 0.0 15.0 0.0 0.0 0.0 15.0" Properties=species:S:1:pos:R:3:forces:R:3 energy=        0.5981036955 pbc="T T T"
       O     0.0138695500     0.0048809600     0.0000000000     -6.235970692      3.048022228     -0.000000000
       H     0.9058599400    -0.1451743700     0.0000000000      3.370478363      0.809179152     -0.000000000
       H    -0.4046699500     0.9966579600     0.0000000000      2.865492329     -3.857201380     -0.000000000
