       3
Lattice="15.0 0.0 0.0 0.0 15.0 0.0 0.0 0.0 15.0" Properties=species:S:1:pos:R:3:forces:R:3 energy=        0.3815669036 pbc="T T T"
       O    -0.0024982600     0.0025038600     0.0000000000      0.760977527     -6.648579465     -0.000000000
       H     0.9325421200     0.0433133700     0.0000000000      1.494059393     -0.649174287     -0.000000000
       H    -0.1715781300     0.8458954900     0.0000000000     -2.255036920      7.297753752     -0.000000000
