       3
Lattice="15.0 0.0 0.0 0.0 15.0 0.0 0.0 0.0 15.0" Properties=species:S:1:pos:R:3:forces:R:3 energy=        0.6503606262 pbc="T T T"
       O    -0.0086125100     0.0000618900     0.0000000000      3.535852979     -8.317818793     -0.000000000
       H     0.9747595000     0.0935771300     0.0000000000     -0.833477785     -1.312926222     -0.000000000
       H    -0.1167566800     0.8343875200     0.0000000000     -2.702375246      9.630744963     -0.000000000
