       3
Lattice="15.0 0.0 0.0 0.0 15.0 0.0 0.0 0.0 15.0" Properties=species:S:1:pos:R:3:forces:R:3 energy=        0.5536504815 pbc="T T T"
       O    -0.0117750800     0.0004961000     0.0000000000      5.722435736     -4.997248086     -0.000000000
       H     1.0734561500     0.0545441900     0.0000000000     -4.201355167     -0.627559938     -0.000000000
       H    -0.1652620600     0.8665299300     0.0000000000     -1.521080569      5.624808024     -0.000000000
