       3
Lattice="15.0 0.0 0.0 0.0 15.0 0.0 0.0 0.0 15.0" Properties=species:S:1:pos:R:3:forces:R:3 energy=        0.5503793028 pbc="T T T"
       O    -0.0004358000    -0.0099550500     0.0000000000     -6.526147589      1.403498618     -0.000000000
       H     0.8514231100     0.1201441300     0.0000000000      7.977204645     -0.566151938     -0.000000000
       H    -0.1231898400     0.9667961000     0.0000000000     -1.451057056     -0.837346680     -0.000000000
