       3
Lattice="15.0 0.0 0.0 0.0 15.0 0.0 0.0 0.0 15.0" Properties=species:S:1:pos:R:3:forces:R:3 energy=        0.2393898418 pbc="T T T"
       O     0.0065122400     0.0120774900     0.0000000000     -0.023067588     -4.947602580     -0.000000000
       H     0.9405613000    -0.1041254100     0.0000000000      0.650512598      0.817308572     -0.000000000
       H    -0.3226044300     0.8413946000     0.0000000000     -0.627445010      4.130294008     -0.000000000
