       3
Lattice="15.0 0.0 0.0 0.0 15.0 0.0 0.0 0.0 15.0" Properties=species:S:1:pos:R:3:forces:R:3 energy=        0.6355561438 pbc="T T T"
       O     0.0025733300     0.0157038100     0.0000000000      4.934745721     -9.658266579     -0.000000000
       H     1.0048160200    -0.1169040900     0.0000000000     -2.681512585      1.319234529     -0.000000000
       H    -0.3243462000     0.7966212300     0.0000000000     -2.253233188      8.339032050     -0.000000000
