       3
Lattice="15.0 0.0 0.0 0.0 15.0 0.0 0.0 0.0 15.0" Properties=species:S:1:pos:R:3:forces:R:3 energy=        0.6383704378 pbc="T T T"
       O     0.0032501900    -0.0128845800     0.0000000000     -6.136843100      4.651517954     -0.000000000
       H     0.8818796400     0.0602987400     0.0000000000      5.659796743     -0.063654682     -0.000000000
       H    -0.2121471800     1.0731359500     0.0000000000      0.477046305     -4.587863272     -0.000000000
