       3
Lattice="15.0 0.0 0.0 0.0 15.0 0.0 0.0 0.0 15.0" Properties=species:S:1:pos:R:3:forces:R:3 energy=        0.1421610480 pbc="T T T"
       O     0.0076155100     0.0043777600     0.0000000000     -3.306743822      1.047431464     -0.000000000
       H     0.9273722600    -0.0832188500     0.0000000000      1.916910984      0.626464339     -0.000000000
       H    -0.3269245200     0.9426883500     0.0000000000      1.389832839     -1.673895803     -0.000000000
