       3
Lattice="15.0 0.0 0.0 0.0 15.0 0.0 0.0 0.0 15.0" Properties=species:S:1:pos:R:3:forces:R:3 energy=        0.2638753734 pbc="T T T"
       O    -0.0008965500     0.0058577600     0.0000000000      1.977546829     -6.280295503     -0.000000000
       H     0.9611096300    -0.0091776100     0.0000000000     -0.267785817     -0.016834357     -0.000000000
       H    -0.2255674800     0.8451580900     0.0000000000     -1.709761064      6.297129809     -0.000000000
