       3
Lattice="15.0 0.0 0.0 0.0 15.0 0.0 0.0 0.0 15.0" Properties=species:S:1:pos:R:3:forces:R:3 energy=        0.6950164889 pbc="T T T"
       O    -0.0153507800    -0.0058848700     0.0000000000      5.447714468      1.191309077     -0.000000000
       H     1.1422321700     0.0653113000     0.0000000000     -5.259631550     -0.567245480     -0.000000000
       H    -0.1772886600     0.9570337600     0.0000000000     -0.188082918     -0.624063596     -0.000000000
