       3
Lattice="15.0 0.0 0.0 0.0 15.0 0.0 0.0 0.0 15.0" Properties=species:S:1:pos:R:3:forces:R:3 energy=        0.4925444516 pbc="T T T"
       O     0.0048157300    -0.0088813500     0.0000000000     -5.492884350      4.330446718     -0.000000000
       H     0.8983225000     0.0156227500     0.0000000000      4.455259232      0.081598317     -0.000000000
       H    -0.2534373800     1.0542779900     0.0000000000      1.037625169     -4.412045035     -0.000000000
