       3
Lattice="15.0 0.0 0.0 0.0 15.0 0.0 0.0 0.0 15.0" Properties=species:S:1:pos:R:3:forces:R:3 energy=        0.0146542892 pbc="T T T"
       O     0.0005357000    -0.0010557600     0.0000000000     -1.102989379      0.263689277     -0.000000000
       H     0.9384748500     0.0125322000     0.0000000000      1.233872270     -0.141868603     -0.000000000
       H    -0.2256628600     0.9331708100     0.0000000000     -0.130882891     -0.121820674     -0.000000000
