       3
Lattice="15.0 0.0 0.0 0.0 15.0 0.0 0.0 0.0 15.0" Properties=species:S:1:pos:R:3:forces:R:3 energy=        0.6600498117 pbc="T T T"
       O     0.0044518000    -0.0084564800     0.0000000000     -9.685691469      2.779845346     -0.000000000
       H     0.8421053800     0.0624228700     0.0000000000      9.876626256     -0.035991553     -0.000000000
       H    -0.1914433500     1.0007342900     0.0000000000     -0.190934787     -2.743853793     -0.000000000
