       3
Lattice="15.0 0.0 0.0 0.0 15.0 0.0 0.0 0.0 15.0" Properties=species:S:1:pos:R:3:forces:R:3 energy=        0.4398777636 pbc="T T T"
       O     0.0022414800     0.0136770200     0.0000000000      4.013324442     -7.030209413     -0.000000000
       H     1.0119557000    -0.1119720600     0.0000000000     -2.861527789      1.296940329     -0.000000000
       H    -0.3262189700     0.8238559400     0.0000000000     -1.151796653      5.733269085     -0.000000000
