       3
Lattice="15.0 0.0 0.0 0.0 15.0 0.0 0.0 0.0 15.0" Properties=species:S:1:pos:R:3:forces:R:3 energy=        1.1631443979 pbc="T T T"
       O    -0.0147681600    -0.0016443000     0.0000000000      5.313752011    -10.701465336     -0.000000000
       H     1.0211234500     0.1388127400     0.0000000000     -2.456356655     -1.969449805     -0.000000000
       H    -0.0654248800     0.8162302600     0.0000000000     -2.857395304     12.670915141     -0.000000000
