       3
Lattice="15.0 0.0 0.0 0.0 15.0 0.0 0.0 0.0 15.0" Properties=species:S:1:pos:R:3:forces:R:3 energy=        0.1620081703 pbc="T T T"
       O    -0.0007959100    -0.0068520500     0.0000000000     -0.318469946      3.367596669     -0.000000000
       H     0.9663450400     0.0255651700     0.0000000000     -0.311828372     -0.123288980     -0.000000000
       H    -0.2323989200     1.0121292800     0.0000000000      0.630298319     -3.244307689     -0.000000000
