       3
Lattice="15.0 0.0 0.0 0.0 15.0 0.0 0.0 0.0 15.0" Properties=species:S:1:pos:R:3:forces:R:3 energy=        0.7277804127 pbc="T T T"
       O     0.0015385500     0.0150816000     0.0000000000      5.379342478    -11.107847255     -0.000000000
       H     1.0008148000    -0.0990838100     0.0000000000     -2.490407436      1.105557603     -0.000000000
       H    -0.3039217700     0.7886758500     0.0000000000     -2.888935042     10.002289703     -0.000000000
