       3
Lattice="15.0 0.0 0.0 0.0 15.0 0.0 0.0 0.0 15.0" Properties=species:S:1:pos:R:3:forces:R:3 energy=        0.3247644007 pbc="T T T"
       O     0.0114078600     0.0086956800     0.0000000000     -6.597805913     -0.329367932     -0.000000000
       H     0.8789046400    -0.1059251800     0.0000000000      5.676031056      0.232760691     -0.000000000
       H    -0.3386448700     0.8968660400     0.0000000000      0.921774857      0.096607190     -0.000000000
