       3
Lattice="15.0 0.0 0.0 0.0 15.0 0.0 0.0 0.0 15.0" Properties=species:S:1:pos:R:3:forces:R:3 energy=        0.4495757900 pbc="T T T"
       O    -0.0123900200    -0.0035153100     0.0000000000      5.142389807     -0.321740751     -0.000000000
       H     1.0967852500     0.0566469900     0.0000000000     -4.635324418     -0.546955970     -0.000000000
       H    -0.1788315100     0.9280912600     0.0000000000     -0.507065389      0.868696721     -0.000000000
