       3
Lattice="15.0 0.0 0.0 0.0 15.0 0.0 0.0 0.0 15.0" Properties=species:S:1:pos:R:3:forces:R:3 energy=        0.5393826157 pbc="T T T"
       O    -0.0060785500    -0.0032970300     0.0000000000      3.423278974      2.538185960     -0.000000000
       H     1.0944811700    -0.0200341600     0.0000000000     -4.655718521      0.458845612     -0.000000000
       H    -0.2766969900     1.0013085500     0.0000000000      1.232439547     -2.997031623     -0.000000000
