       3
Lattice="15.0 0.0 0.0 0.0 15.0 0.0 0.0 0.0 15.0" Properties=species:S:1:pos:R:3:forces:R:3 energy=        0.1968978122 pbc="T T T"
       O    -0.0041850200    -0.0009819900     0.0000000000      2.881531907      1.032654864     -0.000000000
       H     1.0437143700    -0.0112430400     0.0000000000     -3.489653730      0.275151774     -0.000000000
       H    -0.2559816700     0.9557757200     0.0000000000      0.608121823     -1.307806690     -0.000000000
