       3
Lattice="15.0 0.0 0.0 0.0 15.0 0.0 0.0 0.0 15.0" Properties=species:S:1:pos:R:3:forces:R:3 energy=        0.0444319783 pbc="T T T"
       O    -0.0025568400    -0.0011703700     0.0000000000      1.691457783      0.578518076     -0.000000000
       H     0.9976140300     0.0050828900     0.0000000000     -1.865466785      0.014303876     -0.000000000
       H    -0.2357212600     0.9424392600     0.0000000000      0.174009002     -0.592821953     -0.000000000
