       3
Lattice="15.0 0.0 0.0 0.0 15.0 0.0 0.0 0.0 15.0" Properties=species:S:1:pos:R:3:forces:R:3 energy=        0.1098886054 pbc="T T T"
       O     0.0027455200     0.0075527300     0.0000000000      0.763546368     -3.619932772     -0.000000000
       H     0.9611358100    -0.0594235600     0.0000000000     -0.320489189      0.543040641     -0.000000000
       H    -0.2833972100     0.8685039300     0.0000000000     -0.443057180      3.076892130     -0.000000000
