       3
Lattice="15.0 0.0 0.0 0.0 15.0 0.0 0.0 0.0 15.0" Properties=species:S:1:pos:R:3:forces:R:3 energy=        0.5535035155 pbc="T T T"
       O     0.0074039700    -0.0012311000     0.0000000000    -10.304543488      1.197440646     -0.000000000
       H     0.8429503200     0.0026172200     0.0000000000     10.201716179     -0.146547601     -0.000000000
       H    -0.2391429700     0.9458682000     0.0000000000      0.102827309     -1.050893045     -0.000000000
