       3
Lattice="15.0 0.0 0.0 0.0 15.0 0.0 0.0 0.0 15.0" Properties=species:S:1:pos:R:3:forces:R:3 energy=        0.5216443268 pbc="T T T"
       O    -0.0014919000     0.0116873600     0.0000000000      5.130163589     -7.045391373     -0.000000000
       H     1.0479659900    -0.0876553600     0.0000000000     -3.928365332      1.132207152     -0.000000000
       H    -0.3029771600     0.8311166200     0.0000000000     -1.201798257      5.913184222     -0.000000000
