       3
Lattice="15.0 0.0 0.0 0.0 15.0 0.0 0.0 0.0 15.0" Properties=species:S:1:pos:R:3:forces:R:3 energy=        0.6046029011 pbc="T T T"
       O     0.0077622500    -0.0048354800     0.0000000000     -9.874007587      3.274376858     -0.000000000
       H     0.8534732900     0.0013878600     0.0000000000      9.045062659      0.028205169     -0.000000000
       H    -0.2553520000     1.0043018700     0.0000000000      0.828944928     -3.302582027     -0.000000000
