       3
Lattice="15.0 0.0 0.0 0.0 15.0 0.0 0.0 0.0 15.0" Properties=species:S:1:pos:R:3:forces:R:3 energy=        0.1294676657 pbc="T T T"
       O     0.0029654500     0.0077243100     0.0000000000      0.514676372     -4.043174398     -0.000000000
       H     0.9531152500    -0.0564464300     0.0000000000      0.127093032      0.472878751     -0.000000000
       H    -0.2788669600     0.8628035900     0.0000000000     -0.641769404      3.570295648     -0.000000000
