       3
Lattice="15.0 0.0 0.0 0.0 15.0 0.0 0.0 0.0 15.0" Properties=species:S:1:pos:R:3:forces:R:3 energy=        0.8288536855 pbc="T T T"
       O    -0.0034673600     0.0099465400     0.0000000000      4.345746846     -2.067982546     -0.000000000
       H     1.1380027700    -0.1277402500     0.0000000000     -5.523874951      1.699395811     -0.000000000
       H    -0.3616630400     0.8988301600     0.0000000000      1.178128104      0.368586735     -0.000000000
