       3
Lattice="15.0 0.0 0.0 0.0 15.0 0.0 0.0 0.0 15.0" Properties=species:S:1:pos:R:3:forces:R:3 energy=        0.2275082132 pbc="T T T"
       O    -0.0030735500    -0.0072766000     0.0000000000     -2.173356688      0.448790794     -0.000000000
       H     0.9009713100     0.1057367300     0.0000000000      3.600520265     -0.969626143     -0.000000000
       H    -0.1308753700     0.9386948600     0.0000000000     -1.427163629      0.520835350     -0.000000000
