       3
Lattice="15.0 0.0 0.0 0.0 15.0 0.0 0.0 0.0 15.0" Properties=species:S:1:pos:R:3:forces:R:3 energy=        0.4269277508 pbc="T T T"
       O    -0.0082030600     0.0031214000     0.0000000000      5.136880188     -3.219510725     -0.000000000
       H     1.0848274200    -0.0065797100     0.0000000000     -4.579690759      0.210360869     -0.000000000
       H    -0.2333254800     0.8859887000     0.0000000000     -0.557189428      3.009149855     -0.000000000
