       3
Lattice="15.0 0.0 0.0 0.0 15.0 0.0 0.0 0.0 15.0" Properties=species:S:1:pos:R:3:forces:R:3 energy=        0.1914824688 pbc="T T T"
       O     0.0069241000     0.0100661500     0.0000000000     -1.673641007     -3.704492435     -0.000000000
       H     0.9220201600    -0.0884658700     0.0000000000      2.019971697      0.554660233     -0.000000000
       H    -0.3105994100     0.8576563800     0.0000000000     -0.346330690      3.149832202     -0.000000000
