       3
Lattice="15.0 0.0 0.0 0.0 15.0 0.0 0.0 0.0 15.0" Properties=species:S:1:pos:R:3:forces:R:3 energy=        0.7839969701 pbc="T T T"
       O    -0.0138818400    -0.0030709300     0.0000000000      5.001339792     -6.972915901     -0.000000000
       H     1.0214077900     0.1321643100     0.0000000000     -2.529502981     -1.798232560     -0.000000000
       H    -0.0797758300     0.8455205000     0.0000000000     -2.471836812      8.771148460     -0.000000000
