       3
Lattice="15.0 0.0 0.0 0.0 15.0 0.0 0.0 0.0 15.0" Properties=species:S:1:pos:R:3:forces:R:3 energy=        0.7881286925 pbc="T T T"
       O     0.0165367600     0.0075011400     0.0000000000    -11.805067461      2.907339675     -0.000000000
       H     0.8426683800    -0.1372313400     0.0000000000      9.520268310     -0.322034320     -0.000000000
       H    -0.3838086400     0.9471305100     0.0000000000      2.284799150     -2.585305356     -0.000000000
