       3
Lattice="15.0 0.0 0.0 0.0 15.0 0.0 0.0 0.0 15.0" Properties=species:S:1:pos:R:3:forces:R:3 energy=        0.1934651421 pbc="T T T"
       O    -0.0087365500    -0.0088324100     0.0000000000      2.125486221      0.965748558     -0.000000000
       H     0.9707681400     0.1262310000     0.0000000000     -0.690048265     -1.440419883     -0.000000000
       H    -0.1107957100     0.9428926600     0.0000000000     -1.435438008      0.474671325     -0.000000000
