       3
Lattice="15.0 0.0 0.0 0.0 15.0 0.0 0.0 0.0 15.0" Properties=species:S:1:pos:R:3:forces:R:3 energy=        1.1765672984 pbc="T T T"
       O    -0.0059013200     0.0080543100     0.0000000000      5.915700562    -15.568799117     -0.000000000
       H     0.9932920700     0.0205895300     0.0000000000     -1.850619274     -0.408861183     -0.000000000
       H    -0.1783197300     0.7805299400     0.0000000000     -4.065081287     15.977660249     -0.000000000
