       3
Lattice="15.0 0.0 0.0 0.0 15.0 0.0 0.0 0.0 15.0" Properties=species:S:1:pos:R:3:forces:R:3 energy=        0.1881471311 pbc="T T T"
       O    -0.0014440400    -0.0006262800     0.0000000000      1.854814596      1.637206041     -0.000000000
       H     1.0257169100    -0.0321682900     0.0000000000     -2.915317812      0.507908968     -0.000000000
       H    -0.2814861500     0.9710556900     0.0000000000      1.060503216     -2.145115060     -0.000000000
