       3
Lattice="15.0 0.0 0.0 0.0 15.0 0.0 0.0 0.0 15.0" Properties=species:S:1:pos:R:3:forces:R:3 energy=        0.1334364382 pbc="T T T"
       O    -0.0010472700    -0.0071739500     0.0000000000     -0.642657926      3.197637928     -0.000000000
       H     0.9549983400     0.0384881600     0.0000000000      0.278417128     -0.264150430     -0.000000000
       H    -0.2170626700     1.0043149200     0.0000000000      0.364240798     -2.933487498     -0.000000000
