       3
Lattice="15.0 0.0 0.0 0.0 15.0 0.0 0.0 0.0 15.0" Properties=species:S:1:pos:R:3:forces:R:3 energy=        0.3345371768 pbc="T T T"
       O    -0.0000406500    -0.0094082700     0.0000000000     -0.747566492      4.327995325     -0.000000000
       H     0.9648985200     0.0254351600     0.0000000000     -0.186733809     -0.054081072     -0.000000000
       H    -0.2429389500     1.0528283700     0.0000000000      0.934300301     -4.273914252     -0.000000000
