       3
Lattice="15.0 0.0 0.0 0.0 15.0 0.0 0.0 0.0 15.0" Properties=species:S:1:pos:R:3:forces:R:3 energy=        0.6500761121 pbc="T T T"
       O     0.0029410400    -0.0135896200     0.0000000000     -5.115505980      4.934639740     -0.000000000
       H     0.8958617700     0.0554728300     0.0000000000      4.458154861     -0.065697322     -0.000000000
       H    -0.2212229600     1.0891513600     0.0000000000      0.657351119     -4.868942418     -0.000000000
