       3
Lattice="15.0 0.0 0.0 0.0 15.0 0.0 0.0 0.0 15.0" Properties=species:S:1:pos:R:3:forces:R:3 energy=        0.5683505076 pbc="T T T"
       O     0.0021609800    -0.0131699200     0.0000000000     -4.908024387      4.722254589     -0.000000000
       H     0.8944657000     0.0648478900     0.0000000000      4.484523336     -0.163265642     -0.000000000
       H    -0.2074465300     1.0731152600     0.0000000000      0.423501051     -4.558988895     -0.000000000
