       3
Lattice="15.0 0.0 0.0 0.0 15.0 0.0 0.0 0.0 15.0" Properties=species:S:1:pos:R:3:forces:R:3 energy=        0.2132162490 pbc="T T T"
       O     0.0031304600     0.0018311800     0.0000000000      0.222555823      1.741021065     -0.000000000
       H     0.9981397000    -0.0748734000     0.0000000000     -1.898569754      0.907679497     -0.000000000
       H    -0.3265106300     0.9747592500     0.0000000000      1.676013982     -2.648700562     -0.000000000
