       3
Lattice="15.0 0.0 0.0 0.0 15.0 0.0 0.0 0.0 15.0" Properties=species:S:1:pos:R:3:forces:R:3 energy=        0.5154831683 pbc="T T T"
       O    -0.0123349000    -0.0033969900     0.0000000000      5.111596101      0.312596927     -0.000000000
       H     1.1143284000     0.0419722000     0.0000000000     -4.957002332     -0.326842593     -0.000000000
       H    -0.1972498300     0.9408883900     0.0000000000     -0.154593770      0.014245667     -0.000000000
