       3
Lattice="15.0 0.0 0.0 0.0 15.0 0.0 0.0 0.0 15.0" Properties=species:S:1:pos:R:3:forces:R:3 energy=        0.8240513439 pbc="T T T"
       O    -0.0012503400     0.0146935800     0.0000000000      6.553175038    -10.652402597     -0.000000000
       H     1.0472232300    -0.0995281600     0.0000000000     -4.006287021      1.268454343     -0.000000000
       H    -0.3060685100     0.7952784300     0.0000000000     -2.546888017      9.383948305     -0.000000000
