       3
Lattice="15.0 0.0 0.0 0.0 15.0 0.0 0.0 0.0 15.0" Properties=species:S:1:pos:R:3:forces:R:3 energy=        0.4894792114 pbc="T T T"
       O     0.0043059100    -0.0090527600     0.0000000000     -3.991949566      4.515636425     -0.000000000
       H     0.9206852400     0.0050806000     0.0000000000      2.708794985      0.161056292     -0.000000000
       H    -0.2677092900     1.0675406900     0.0000000000      1.283154530     -4.676692717     -0.000000000
