       3
Lattice="15.0 0.0 0.0 0.0 15.0 0.0 0.0 0.0 15.0" Properties=species:S:1:pos:R:3:forces:R:3 energy=        1.0700914334 pbc="T T T"
       O     0.0102513500    -0.0039751900     0.0000000000    -15.387483500      3.041893384     -0.000000000
       H     0.8129467100    -0.0005287100     0.0000000000     14.671403883     -0.038096465     -0.000000000
       H    -0.2543292900     0.9925648000     0.0000000000      0.716079616     -3.003796919     -0.000000000
