       3
Lattice="15.0 0.0 0.0 0.0 15.0 0.0 0.0 0.0 15.0" Properties=species:S:1:pos:R:3:forces:R:3 energy=        0.4336239150 pbc="T T T"
       O     0.0026961900    -0.0104129900     0.0000000000     -4.197291537      4.408056430     -0.000000000
       H     0.9085415100     0.0386348200     0.0000000000      3.482528017     -0.081747595     -0.000000000
       H    -0.2300171100     1.0555739900     0.0000000000      0.714763468     -4.326308886     -0.000000000
