       3
Lattice="15.0 0.0 0.0 0.0 15.0 0.0 0.0 0.0 15.0" Properties=species:S:1:pos:R:3:forces:R:3 energy=        0.6548282460 pbc="T T T"
       O    -0.0054774100     0.0025495400     0.0000000000      3.850235024      0.679424153     -0.000000000
       H     1.1237283700    -0.0685761900     0.0000000000     -5.231570362      1.028320034     -0.000000000
       H    -0.3154860500     0.9570615300     0.0000000000      1.381335339     -1.707744187     -0.000000000
