       3
Lattice="15.0 0.0 0.0 0.0 15.0 0.0 0.0 0.0 15.0" Properties=species:S:1:pos:R:3:forces:R:3 energy=        0.2916055173 pbc="T T T"
       O     0.0071095600     0.0098460900     0.0000000000     -2.741890137     -4.576155902     -0.000000000
       H     0.9018230000    -0.0743745100     0.0000000000      3.623659844      0.277378402     -0.000000000
       H    -0.2933452800     0.8470573500     0.0000000000     -0.881769707      4.298777500     -0.000000000
