       3
Lattice="15.0 0.0 0.0 0.0 15.0 0.0 0.0 0.0 15.0" Properties=species:S:1:pos:R:3:forces:R:3 energy=        0.9604944007 pbc="T T T"
       O     0.0087151000    -0.0030758700     0.0000000000    -14.513115231      1.777251371     -0.000000000
       H     0.8131650900     0.0154006600     0.0000000000     14.416903374     -0.062579086     -0.000000000
       H    -0.2301659300     0.9623624300     0.0000000000      0.096211857     -1.714672284     -0.000000000
