       3
Lattice="15.0 0.0 0.0 0.0 15.0 0.0 0.0 0.0 15.0" Properties=species:S:1:pos:R:3:forces:R:3 energy=        0.4252346311 pbc="T T T"
       O     0.0065244600     0.0143119000     0.0000000000      1.013674972     -7.593561265     -0.000000000
       H     0.9380370500    -0.1093564900     0.0000000000      0.685082793      0.829035636     -0.000000000
       H    -0.3202743600     0.8111640700     0.0000000000     -1.698757765      6.764525680     -0.000000000
