       3
Lattice="15.0 0.0 0.0 0.0 15.0 0.0 0.0 0.0 15.0" Properties=species:S:1:pos:R:3:forces:R:3 energy=        0.5374963932 pbc="T T T"
       O     0.0110164200    -0.0001434900     0.0000000000     -7.163136229      3.578661096     -0.000000000
       H     0.8922538100    -0.0836148500     0.0000000000      4.973926678      0.428077360     -0.000000000
       H    -0.3457807900     1.0148398900     0.0000000000      2.189209552     -4.006738455     -0.000000000
