       3
Lattice="15.0 0.0 0.0 0.0 15.0 0.0 0.0 0.0 15.0" Properties=species:S:1:pos:R:3:forces:R:3 energy=        0.3463360610 pbc="T T T"
       O     0.0028138000    -0.0003947200     0.0000000000      0.297216066      2.638299519     -0.000000000
       H     1.0082387500    -0.0717993300     0.0000000000     -2.239700334      0.921431357     -0.000000000
       H    -0.3315840100     1.0070118100     0.0000000000      1.942484268     -3.559730825     -0.000000000
