       3
Lattice="15.0 0.0 0.0 0.0 15.0 0.0 0.0 0.0 15.0" Properties=species:S:1:pos:R:3:forces:R:3 energy=        0.5028773523 pbc="T T T"
       O    -0.0022808700     0.0057209900     0.0000000000      3.425284538     -0.372361322     -0.000000000
       H     1.0917890700    -0.0931618300     0.0000000000     -4.757654274      1.281359436     -0.000000000
       H    -0.3342787600     0.9313139400     0.0000000000      1.332369736     -0.908998114     -0.000000000
