       3
Lattice="15.0 0.0 0.0 0.0 15.0 0.0 0.0 0.0 15.0" Properties=species:S:1:pos:R:3:forces:R:3 energy=        0.2990516410 pbc="T T T"
       O     0.0109588200     0.0057622500     0.0000000000     -6.207537723      1.391147238     -0.000000000
       H     0.8926345700    -0.1018095900     0.0000000000      4.585950678      0.424085052     -0.000000000
       H    -0.3452480100     0.9393062400     0.0000000000      1.621586993     -1.815232290     -0.000000000
