       3
Lattice="15.0 0.0 0.0 0.0 15.0 0.0 0.0 0.0 15.0" Properties=species:S:1:pos:R:3:forces:R:3 energy=        0.2288319002 pbc="T T T"
       O    -0.0031807300    -0.0084343600     0.0000000000     -2.189052972      1.189889570     -0.000000000
       H     0.9017759200     0.1100808700     0.0000000000      3.505036493     -0.969557701     -0.000000000
       H    -0.1299788800     0.9527252600     0.0000000000     -1.315983470     -0.220331921     -0.000000000
