       3
Lattice="15.0 0.0 0.0 0.0 15.0 0.0 0.0 0.0 15.0" Properties=species:S:1:pos:R:3:forces:R:3 energy=        0.2085051091 pbc="T T T"
       O    -0.0067817200    -0.0009246600     0.0000000000      3.092320145     -3.383553251     -0.000000000
       H     0.9909777200     0.0615292400     0.0000000000     -1.594933331     -0.777558424     -0.000000000
       H    -0.1620317000     0.8820929800     0.0000000000     -1.497386814      4.161111676     -0.000000000
