       3
Lattice="15.0 0.0 0.0 0.0 15.0 0.0 0.0 0.0 15.0" Properties=species:S:1:pos:R:3:forces:R:3 energy=        0.4856577477 pbc="T T T"
       O    -0.0141427900    -0.0047773900     0.0000000000      5.387387001     -1.130497727     -0.000000000
       H     1.0846040900     0.0916839100     0.0000000000     -4.305367909     -1.036004294     -0.000000000
       H    -0.1388316400     0.9130842200     0.0000000000     -1.082019091      2.166502021     -0.000000000
