       3
Lattice="15.0 0.0 0.0 0.0 15.0 0.0 0.0 0.0 15.0" Properties=species:S:1:pos:R:3:forces:R:3 energy=        0.5029356608 pbc="T T T"
       O     0.0059445200     0.0051918500     0.0000000000      0.233336978      1.672220369     -0.000000000
       H     1.0197887500    -0.1369542800     0.0000000000     -2.805547134      1.591659801     -0.000000000
       H    -0.3928225300     0.9835043300     0.0000000000      2.572210156     -3.263880170     -0.000000000
