       3
Lattice="15.0 0.0 0.0 0.0 15.0 0.0 0.0 0.0 15.0" Properties=species:S:1:pos:R:3:forces:R:3 energy=        0.8787902170 pbc="T T T"
       O     0.0015367300     0.0179657300     0.0000000000      6.494255096    -10.532000659     -0.000000000
       H     1.0435239600    -0.1413138600     0.0000000000     -4.020623550      1.733167627     -0.000000000
       H    -0.3466031400     0.7851330600     0.0000000000     -2.473631546      8.798833032     -0.000000000
