       3
Lattice="15.0 0.0 0.0 0.0 15.0 0.0 0.0 0.0 15.0" Properties=species:S:1:pos:R:3:forces:R:3 energy=        0.6486682603 pbc="T T T"
       O     0.0047827400    -0.0088306700     0.0000000000     -2.503312323      4.669191005     -0.000000000
       H     0.9531240100    -0.0266851000     0.0000000000      0.644327292      0.462259627     -0.000000000
       H    -0.3077165100     1.0957820300     0.0000000000      1.858985031     -5.131450632     -0.000000000
