       3
Lattice="15.0 0.0 0.0 0.0 15.0 0.0 0.0 0.0 15.0" Properties=species:S:1:pos:R:3:forces:R:3 energy=        0.6647177780 pbc="T T T"
       O    -0.0008554500     0.0138217700     0.0000000000      5.202931653     -5.980863299     -0.000000000
       H     1.0810217400    -0.1278931000     0.0000000000     -4.756644601      1.661743890     -0.000000000
       H    -0.3461350000     0.8374800200     0.0000000000     -0.446287104      4.319119358     -0.000000000
