       3
Lattice="15.0 0.0 0.0 0.0 15.0 0.0 0.0 0.0 15.0" Properties=species:S:1:pos:R:3:forces:R:3 energy=        0.3109562468 pbc="T T T"
       O    -0.0019742500    -0.0110910800     0.0000000000     -3.280325776      2.885368097     -0.000000000
       H     0.8930739900     0.1103407600     0.0000000000      4.176555477     -0.767944911     -0.000000000
       H    -0.1404246000     0.9946294400     0.0000000000     -0.896229701     -2.117423135     -0.000000000
