       3
Lattice="15.0 0.0 0.0 0.0 15.0 0.0 0.0 0.0 15.0" Properties=species:S:1:pos:R:3:forces:R:3 energy=        0.9178846901 pbc="T T T"
       O     0.0043894400    -0.0090597800     0.0000000000    -12.059162455      1.993515393     -0.000000000
       H     0.8176838400     0.0840562900     0.0000000000     12.775126475      0.137733187     -0.000000000
       H    -0.1660315200     0.9886754500     0.0000000000     -0.715964020     -2.131248580     -0.000000000
