       3
Lattice="15.0 0.0 0.0 0.0 15.0 0.0 0.0 0.0 15.0" Properties=species:S:1:pos:R:3:forces:R:3 energy=        0.1453145510 pbc="T T T"
       O    -0.0030886600    -0.0072645700     0.0000000000      0.877470821      3.158141291     -0.000000000
       H     0.9844496600     0.0410622200     0.0000000000     -1.229533017     -0.308813341     -0.000000000
       H    -0.2141154900     1.0031792000     0.0000000000      0.352062196     -2.849328002     -0.000000000
