       3
Lattice="15.0 0.0 0.0 0.0 15.0 0.0 0.0 0.0 15.0" Properties=species:S:1:pos:R:3:forces:R:3 energy=       12.6618989425 pbc="T T T"
       O    -0.0243959100     0.0151796500     0.0000000000     11.090958853    -97.578002818     -0.000000000
       H     1.1531981600     0.1018940700     0.0000000000     -5.138489648     -1.555095920     -0.000000000
       H    -0.0447013400     0.5861411500     0.0000000000     -5.952469205     99.133098687     -0.000000000
