       3
Lattice="15.0 0.0 0.0 0.0 15.0 0.0 0.0 0.0 15.0" Properties=species:S:1:pos:R:3:forces:R:3 energy=        1.6529448505 pbc="T T T"
       O    -0.0040405300    -0.0310945800     0.0000000000      0.122904548      6.518022179     -0.000000000
       H     0.9572717100     0.1489852200     0.0000000000     -0.309021446     -0.802843436     -0.000000000
       H    -0.1718276700     1.2734554400     0.0000000000      0.186116846     -5.715178691     -0.000000000
