       3
Lattice="15.0 0.0 0.0 0.0 15.0 0.0 0.0 0.0 15.0" Properties=species:S:1:pos:R:3:forces:R:3 energy=        7.9508126942 pbc="T T T"
       O     0.0180427200    -0.0233592600     0.0000000000    -61.121295573     -4.443631721     -0.000000000
       H     0.6414095700     0.0977319100     0.0000000000     60.885739064     10.212717421     -0.000000000
       H    -0.2064441000     1.2019425200     0.0000000000      0.235556510     -5.769085700     -0.000000000
