       3
Lattice="15.0 0.0 0.0 0.0 15.0 0.0 0.0 0.0 15.0" Properties=species:S:1:pos:R:3:forces:R:3 energy=        1.7436693367 pbc="T T T"
       O    -0.0171940900    -0.0066099300     0.0000000000      3.018456533    -11.253472190     -0.000000000
       H     0.9630891900     0.2294214600     0.0000000000      0.179091304     -3.320565359     -0.000000000
       H     0.0311130500     0.8044290000     0.0000000000     -3.197547837     14.574037498     -0.000000000
