       3
Lattice="15.0 0.0 0.0 0.0 15.0 0.0 0.0 0.0 15.0" Properties=species:S:1:pos:R:3:forces:R:3 energy=        1.9715463866 pbc="T T T"
       O    -0.0200603900     0.0000467300     0.0000000000      4.711011715      1.109985405     -0.000000000
       H     1.3368656800    -0.0464754600     0.0000000000     -6.018819228      0.763164611     -0.000000000
       H    -0.2971803400     0.9746829500     0.0000000000      1.307807513     -1.873150016     -0.000000000
