       3
Lattice="15.0 0.0 0.0 0.0 15.0 0.0 0.0 0.0 15.0" Properties=species:S:1:pos:R:3:forces:R:3 energy=       17.2787638619 pbc="T T T"
       O    -0.0256106700     0.0136165100     0.0000000000     -6.645744771   -128.548799217     -0.000000000
       H     1.0913382300     0.1698258100     0.0000000000     -3.315770147     -3.053169167     -0.000000000
       H     0.0364393900     0.5430169300     0.0000000000      9.961514970    131.601968384     -0.000000000
