       3
Lattice="15.0 0.0 0.0 0.0 15.0 0.0 0.0 0.0 15.0" Properties=species:S:1:pos:R:3:forces:R:3 energy=        7.6901823140 pbc="T T T"
       O     0.0039184900     0.0205838100     0.0000000000      9.432639108    -61.681473293     -0.000000000
       H     0.8353834100    -0.0172901900     0.0000000000     10.114109655     -0.966131858     -0.000000000
       H    -0.1762597200     0.6195568900     0.0000000000    -19.546748763     62.647605152     -0.000000000
