       3
Lattice="15.0 0.0 0.0 0.0 15.0 0.0 0.0 0.0 15.0" Properties=species:S:1:pos:R:3:forces:R:3 energy=       14.7807471657 pbc="T T T"
       O    -0.0165485500     0.0252863200     0.0000000000     37.744798706   -112.719571343     -0.000000000
       H     1.1518695200    -0.0256309600     0.0000000000     -6.049068990      0.481699336     -0.000000000
       H    -0.1679194200     0.5532666000     0.0000000000    -31.695729716    112.237872007     -0.000000000
