       3
Lattice="15.0 0.0 0.0 0.0 15.0 0.0 0.0 0.0 15.0" Properties=species:S:1:pos:R:3:forces:R:3 energy=        8.1102634841 pbc="T T T"
       O    -0.0115321600     0.0213920200     0.0000000000     24.220573978    -67.379827501     -0.000000000
       H     1.0880569800    -0.0256301800     0.0000000000     -5.060282926      0.365562140     -0.000000000
       H    -0.1837206500     0.6150710300     0.0000000000    -19.160291052     67.014265361     -0.000000000
