       3
Lattice="15.0 0.0 0.0 0.0 15.0 0.0 0.0 0.0 15.0" Properties=species:S:1:pos:R:3:forces:R:3 energy=        4.7412747341 pbc="T T T"
       O    -0.0234252400    -0.0042787600     0.0000000000     -1.307263364    -28.675053240     -0.000000000
       H     0.9650418000     0.2973524100     0.0000000000      1.448966542     -4.786668312     -0.000000000
       H     0.1280550000     0.6995003500     0.0000000000     -0.141703178     33.461721604     -0.000000000
