       3
Lattice="15.0 0.0 0.0 0.0 15.0 0.0 0.0 0.0 15.0" Properties=species:S:1:pos:R:3:forces:R:3 energy=        3.6656560504 pbc="T T T"
       O     0.0090569200     0.0272002800     0.0000000000     12.970173950    -33.175973589     -0.000000000
       H     0.8965790100    -0.1489844400     0.0000000000      2.601853703      0.646396723     -0.000000000
       H    -0.3190094900     0.6462438300     0.0000000000    -15.572027653     32.529576917     -0.000000000
