       3
Lattice="15.0 0.0 0.0 0.0 15.0 0.0 0.0 0.0 15.0" Properties=species:S:1:pos:R:3:forces:R:3 energy=        5.8864807740 pbc="T T T"
       O     0.0231811600    -0.0167427900     0.0000000000    -45.800481015      6.387987958     -0.000000000
       H     0.7026051700    -0.0339623400     0.0000000000     43.580875713     -0.346963028     -0.000000000
       H    -0.3491938600     1.2286294700     0.0000000000      2.219605302     -6.041024930     -0.000000000
