       3
Lattice="15.0 0.0 0.0 0.0 15.0 0.0 0.0 0.0 15.0" Properties=species:S:1:pos:R:3:forces:R:3 energy=        4.2801759533 pbc="T T T"
       O     0.0074864300    -0.0369561300     0.0000000000    -24.396283354     -1.463488654     -0.000000000
       H     0.7052624600     0.2210877300     0.0000000000     25.416471808      6.635593280     -0.000000000
       H    -0.1027577100     1.2943785800     0.0000000000     -1.020188454     -5.172104626     -0.000000000
