       3
Lattice="15.0 0.0 0.0 0.0 15.0 0.0 0.0 0.0 15.0" Properties=species:S:1:pos:R:3:forces:R:3 energy=       14.3193247219 pbc="T T T"
       O     0.0446951800     0.0213256400     0.0000000000    -99.691844610     60.435972433     -0.000000000
       H     0.5136634300    -0.2723363500     0.0000000000     96.523957291    -57.813344669     -0.000000000
       H    -0.5017020200     0.8628299300     0.0000000000      3.167887320     -2.622627713     -0.000000000
