       3
Lattice="15.0 0.0 0.0 0.0 15.0 0.0 0.0 0.0 15.0" Properties=species:S:1:pos:R:3:forces:R:3 energy=        1.4243374960 pbc="T T T"
       O    -0.0158572900     0.0054639900     0.0000000000      8.041621094    -11.486494516     -0.000000000
       H     1.1499572600     0.0297947000     0.0000000000     -5.525377761     -0.236848284     -0.000000000
       H    -0.1769762200     0.8124357300     0.0000000000     -2.516243333     11.723342800     -0.000000000
