       3
Lattice="15.0 0.0 0.0 0.0 15.0 0.0 0.0 0.0 15.0" Properties=species:S:1:pos:R:3:forces:R:3 energy=       19.6743608116 pbc="T T T"
       O     0.0211531000    -0.0089943700     0.0000000000   -149.768720171    -30.927568575     -0.000000000
       H     0.5176493600     0.1102387600     0.0000000000    152.175779448     31.624888180     -0.000000000
       H    -0.1320477900     0.9614536000     0.0000000000     -2.407059277     -0.697319656     -0.000000000
