       3
Lattice="15.0 0.0 0.0 0.0 15.0 0.0 0.0 0.0 15.0" Properties=species:S:1:pos:R:3:forces:R:3 energy=        0.3983815592 pbc="T T T"
       O    -0.0086554700    -0.0163255900     0.0000000000      1.418106965      4.560937998     -0.000000000
       H     0.9598482900     0.1573220800     0.0000000000     -0.321702853     -1.532282974     -0.000000000
       H    -0.1011618300     1.0307235800     0.0000000000     -1.096404112     -3.028655024     -0.000000000
