       3
Lattice="15.0 0.0 0.0 0.0 15.0 0.0 0.0 0.0 15.0" Properties=species:S:1:pos:R:3:forces:R:3 energy=        2.3825859451 pbc="T T T"
       O     0.0315520100     0.0147493500     0.0000000000    -19.817303659      8.411196727     -0.000000000
       H     0.7650487200    -0.2848447700     0.0000000000     15.368423903     -3.937664759     -0.000000000
       H    -0.5444958700     0.9797100000     0.0000000000      4.448879756     -4.473531968     -0.000000000
