       3
Lattice="15.0 0.0 0.0 0.0 15.0 0.0 0.0 0.0 15.0" Properties=species:S:1:pos:R:3:forces:R:3 energy=        7.7454371829 pbc="T T T"
       O     0.0196589300    -0.0109214300     0.0000000000    -67.112376390      0.449938432     -0.000000000
       H     0.6420335400     0.0381378200     0.0000000000     66.559573163      4.282467802     -0.000000000
       H    -0.2327202100     1.0641393200     0.0000000000      0.552803279     -4.732406183     -0.000000000
