       3
Lattice="15.0 0.0 0.0 0.0 15.0 0.0 0.0 0.0 15.0" Properties=species:S:1:pos:R:3:forces:R:3 energy=        2.4316439080 pbc="T T T"
       O     0.0205942700    -0.0097222100     0.0000000000     -8.831943149      4.706988656     -0.000000000
       H     0.8901375700    -0.1698265900     0.0000000000      5.455373068      0.693037688     -0.000000000
       H    -0.4956740900     1.2530734800     0.0000000000      3.376570081     -5.400026344     -0.000000000
