       3
Lattice="15.0 0.0 0.0 0.0 15.0 0.0 0.0 0.0 15.0" Properties=species:S:1:pos:R:3:forces:R:3 energy=        1.3121163850 pbc="T T T"
       O    -0.0265356200    -0.0186436500     0.0000000000      5.977356364      2.059674485     -0.000000000
       H     1.0888020100     0.2848455500     0.0000000000     -3.344832882     -3.259036826     -0.000000000
       H     0.0536587000     0.9399892700     0.0000000000     -2.632523482      1.199362341     -0.000000000
