       3
Lattice="15.0 0.0 0.0 0.0 15.0 0.0 0.0 0.0 15.0" Properties=species:S:1:pos:R:3:forces:R:3 energy=        0.1151278721 pbc="T T T"
       O    -0.0019008200     0.0027287200     0.0000000000      2.505902711     -0.721499762     -0.000000000
       H     1.0216678600    -0.0339662600     0.0000000000     -2.859283421      0.481863064     -0.000000000
       H    -0.2701877200     0.9196073200     0.0000000000      0.353380710      0.239636698     -0.000000000
