       3
Lattice="15.0 0.0 0.0 0.0 15.0 0.0 0.0 0.0 15.0" Properties=species:S:1:pos:R:3:forces:R:3 energy=        1.9797402519 pbc="T T T"
       O    -0.0268150300    -0.0190075700     0.0000000000      5.675375682      5.476462552     -0.000000000
       H     1.2750461100     0.1448128700     0.0000000000     -5.642057152     -1.080441667     -0.000000000
       H    -0.1281544500     1.0857992100     0.0000000000     -0.033318530     -4.396020884     -0.000000000
