       3
Lattice="15.0 0.0 0.0 0.0 15.0 0.0 0.0 0.0 15.0" Properties=species:S:1:pos:R:3:forces:R:3 energy=        3.6166577294 pbc="T T T"
       O    -0.0299358000    -0.0023115200     0.0000000000      4.893956487    -23.024795705     -0.000000000
       H     1.1532385100     0.2252506800     0.0000000000     -4.058422590     -2.907652167     -0.000000000
       H     0.0431838100     0.7403816400     0.0000000000     -0.835533897     25.932447924     -0.000000000
