       3
Lattice="15.0 0.0 0.0 0.0 15.0 0.0 0.0 0.0 15.0" Properties=species:S:1:pos:R:3:forces:R:3 energy=        0.9954797042 pbc="T T T"
       O     0.0192117500     0.0299224500     0.0000000000      0.934562759     -7.450458789     -0.000000000
       H     0.8939620800    -0.2806779000     0.0000000000      1.209632412      1.322772780     -0.000000000
       H    -0.4775604900     0.7347352100     0.0000000000     -2.144195222      6.127686009     -0.000000000
