       3
Lattice="15.0 0.0 0.0 0.0 15.0 0.0 0.0 0.0 15.0" Properties=species:S:1:pos:R:3:forces:R:3 energy=        1.9305290263 pbc="T T T"
       O    -0.0060685800    -0.0233461700     0.0000000000     -8.148058078      0.959516098     -0.000000000
       H     0.7723159000     0.2931863200     0.0000000000     12.246824381     -0.404913149     -0.000000000
       H     0.0453184000     1.0062795700     0.0000000000     -4.098766303     -0.554602949     -0.000000000
