       3
Lattice="15.0 0.0 0.0 0.0 15.0 0.0 0.0 0.0 15.0" Properties=species:S:1:pos:R:3:forces:R:3 energy=        1.1176640438 pbc="T T T"
       O     0.0075627500     0.0252732200     0.0000000000      6.748752469    -11.165319614     -0.000000000
       H     1.0209631900    -0.2210853800     0.0000000000     -3.726004557      2.430040374     -0.000000000
       H    -0.4196819100     0.7489295500     0.0000000000     -3.022747963      8.735279240     -0.000000000
