       3
Lattice="15.0 0.0 0.0 0.0 15.0 0.0 0.0 0.0 15.0" Properties=species:S:1:pos:R:3:forces:R:3 energy=        6.1076167201 pbc="T T T"
       O    -0.0349522000     0.0015827800     0.0000000000      2.044473088    -40.119869640     -0.000000000
       H     1.2170510500     0.2252499000     0.0000000000     -4.349132014     -2.747051012     -0.000000000
       H     0.0589850400     0.6785772100     0.0000000000      2.304658926     42.866920652     -0.000000000
