       3
Lattice="15.0 0.0 0.0 0.0 15.0 0.0 0.0 0.0 15.0" Properties=species:S:1:pos:R:3:forces:R:3 energy=        0.6651945351 pbc="T T T"
       O    -0.0148866200    -0.0139944200     0.0000000000      3.029353285      0.547131217     -0.000000000
       H     0.9618009000     0.2252530300     0.0000000000     -0.262898302     -2.750403167     -0.000000000
       H    -0.0042198700     0.9257949300     0.0000000000     -2.766454983      2.203271950     -0.000000000
