       3
Lattice="15.0 0.0 0.0 0.0 15.0 0.0 0.0 0.0 15.0" Properties=species:S:1:pos:R:3:forces:R:3 energy=        0.9194675247 pbc="T T T"
       O     0.0203044700     0.0209748200     0.0000000000     -8.794043887     -1.759881967     -0.000000000
       H     0.8308138700    -0.2169146000     0.0000000000      8.423455136     -0.724537264     -0.000000000
       H    -0.4317526800     0.8129769200     0.0000000000      0.370588803      2.484419231     -0.000000000
