       3
Lattice="15.0 0.0 0.0 0.0 15.0 0.0 0.0 0.0 15.0" Properties=species:S:1:pos:R:3:forces:R:3 energy=        0.9953950360 pbc="T T T"
       O     0.0242281500     0.0260281500     0.0000000000     -7.448411881     -0.942039787     -0.000000000
       H     0.8301495400    -0.2806771200     0.0000000000      6.467136475     -0.558990796     -0.000000000
       H    -0.4933617200     0.7965396400     0.0000000000      0.981275406      1.501030583     -0.000000000
