       3
Lattice="15.0 0.0 0.0 0.0 15.0 0.0 0.0 0.0 15.0" Properties=species:S:1:pos:R:3:forces:R:3 energy=        1.8381687033 pbc="T T T"
       O     0.0024243200     0.0186567500     0.0000000000      8.179537343    -21.862360336     -0.000000000
       H     0.9597675800    -0.0893911300     0.0000000000     -0.742138171      0.771997743     -0.000000000
       H    -0.2769321500     0.7222426100     0.0000000000     -7.437399173     21.090362594     -0.000000000
