       3
Lattice="15.0 0.0 0.0 0.0 15.0 0.0 0.0 0.0 15.0" Properties=species:S:1:pos:R:3:forces:R:3 energy=        6.1103481527 pbc="T T T"
       O     0.0101953600    -0.0334659300     0.0000000000    -39.396153535     -7.965750015     -0.000000000
       H     0.6427382100     0.2252569400     0.0000000000     40.981673076     12.860385685     -0.000000000
       H    -0.0832260200     1.2348170800     0.0000000000     -1.585519490     -4.894635670     -0.000000000
