       3
Lattice="15.0 0.0 0.0 0.0 15.0 0.0 0.0 0.0 15.0" Properties=species:S:1:pos:R:3:forces:R:3 energy=        0.9350424268 pbc="T T T"
       O    -0.0213971800    -0.0120271800     0.0000000000      6.019984709      2.212863301     -0.000000000
       H     1.1499976100     0.1531513000     0.0000000000     -5.001530877     -1.592062693     -0.000000000
       H    -0.0890910700     0.9666762200     0.0000000000     -1.018453832     -0.620800608     -0.000000000
