       3
Lattice="15.0 0.0 0.0 0.0 15.0 0.0 0.0 0.0 15.0" Properties=species:S:1:pos:R:3:forces:R:3 energy=        2.9466255079 pbc="T T T"
       O     0.0169042800     0.0373069500     0.0000000000     14.275582931    -23.029558419     -0.000000000
       H     0.8952503700    -0.2765094700     0.0000000000      0.571316361      1.376901880     -0.000000000
       H    -0.4422275700     0.6133692800     0.0000000000    -14.846899292     21.652656538     -0.000000000
