       3
Lattice="15.0 0.0 0.0 0.0 15.0 0.0 0.0 0.0 15.0" Properties=species:S:1:pos:R:3:forces:R:3 energy=        2.2066814261 pbc="T T T"
       O    -0.0094687700    -0.0070140300     0.0000000000     -4.050316052    -12.154787484     -0.000000000
       H     0.8367524000     0.2335914500     0.0000000000      8.396050197     -2.562053573     -0.000000000
       H     0.0348435100     0.8066719300     0.0000000000     -4.345734145     14.716841057     -0.000000000
