       3
Lattice="15.0 0.0 0.0 0.0 15.0 0.0 0.0 0.0 15.0" Properties=species:S:1:pos:R:3:forces:R:3 energy=        9.1568220292 pbc="T T T"
       O    -0.0192574800     0.0217961200     0.0000000000     25.407187601    -69.801378550     -0.000000000
       H     1.2143937700    -0.0298001700     0.0000000000     -6.372917276      0.584304038     -0.000000000
       H    -0.1874511100     0.6128281000     0.0000000000    -19.034270325     69.217074461     -0.000000000
