       3
Lattice="15.0 0.0 0.0 0.0 15.0 0.0 0.0 0.0 15.0" Properties=species:S:1:pos:R:3:forces:R:3 energy=        1.9906393372 pbc="T T T"
       O    -0.0279077500    -0.0100599400     0.0000000000      5.496921446      2.924490227     -0.000000000
       H     1.3381943300     0.0810495700     0.0000000000     -5.795547403     -0.430694487     -0.000000000
       H    -0.1739622600     1.0075575100     0.0000000000      0.298625957     -2.493795740     -0.000000000
