       3
Lattice="15.0 0.0 0.0 0.0 15.0 0.0 0.0 0.0 15.0" Properties=species:S:1:pos:R:3:forces:R:3 energy=        2.8741120296 pbc="T T T"
       O     0.0311505600     0.0038746600     0.0000000000    -13.283311683      5.954669762     -0.000000000
       H     0.8262846700    -0.2931824100     0.0000000000      8.770747882     -0.799590166     -0.000000000
       H    -0.5993604800     1.1606374300     0.0000000000      4.512563852     -5.155079596     -0.000000000
