       3
Lattice="15.0 0.0 0.0 0.0 15.0 0.0 0.0 0.0 15.0" Properties=species:S:1:pos:R:3:forces:R:3 energy=        2.0748964823 pbc="T T T"
       O     0.0184088400     0.0081730600     0.0000000000     -1.659605091      1.924920025     -0.000000000
       H     1.0164340000    -0.2973531900     0.0000000000     -2.816923756      2.847780403     -0.000000000
       H    -0.5872897100     1.0965900600     0.0000000000      4.476528847     -4.772700479     -0.000000000
