       3
Lattice="15.0 0.0 0.0 0.0 15.0 0.0 0.0 0.0 15.0" Properties=species:S:1:pos:R:3:forces:R:3 energy=        2.0229703033 pbc="T T T"
       O    -0.0209957300    -0.0011524900     0.0000000000      6.527019862    -15.479557216     -0.000000000
       H     1.0887616500     0.1614889400     0.0000000000     -3.903582508     -2.221274309     -0.000000000
       H    -0.0342264600     0.7857487900     0.0000000000     -2.623437353     17.700831525     -0.000000000
