       3
Lattice="15.0 0.0 0.0 0.0 15.0 0.0 0.0 0.0 15.0" Properties=species:S:1:pos:R:3:forces:R:3 energy=        4.9491799274 pbc="T T T"
       O    -0.0103174000     0.0229551600     0.0000000000     20.343149937    -40.603544612     -0.000000000
       H     1.1499169100    -0.0935619100     0.0000000000     -6.042393529      1.381853313     -0.000000000
       H    -0.2648613800     0.6581952500     0.0000000000    -14.300756408     39.221691299     -0.000000000
