       3
Lattice="15.0 0.0 0.0 0.0 15.0 0.0 0.0 0.0 15.0" Properties=species:S:1:pos:R:3:forces:R:3 energy=        1.2195508309 pbc="T T T"
       O    -0.0201824300    -0.0104640400     0.0000000000      5.580230833      3.304801353     -0.000000000
       H     1.2118575400     0.0852195700     0.0000000000     -5.717232130     -0.653468031     -0.000000000
       H    -0.1702318000     1.0098004400     0.0000000000      0.137001297     -2.651333322     -0.000000000
