       3
Lattice="15.0 0.0 0.0 0.0 15.0 0.0 0.0 0.0 15.0" Properties=species:S:1:pos:R:3:forces:R:3 energy=       13.1733164549 pbc="T T T"
       O     0.0239840700     0.0050066000     0.0000000000   -108.688057314      2.014013163     -0.000000000
       H     0.5801332600    -0.0172870600     0.0000000000    109.971706936     -4.988384203     -0.000000000
       H    -0.2394646400     0.8667746100     0.0000000000     -1.283649673      2.974371040     -0.000000000
