       3
Lattice="15.0 0.0 0.0 0.0 15.0 0.0 0.0 0.0 15.0" Properties=species:S:1:pos:R:3:forces:R:3 energy=        7.0884693165 pbc="T T T"
       O     0.0157352500    -0.0159747600     0.0000000000    -59.160144059     -4.399378592     -0.000000000
       H     0.6426978600     0.1019003400     0.0000000000     59.701004558      8.928616416     -0.000000000
       H    -0.1711111800     1.0805765900     0.0000000000     -0.540860499     -4.529237824     -0.000000000
