       3
Lattice="15.0 0.0 0.0 0.0 15.0 0.0 0.0 0.0 15.0" Properties=species:S:1:pos:R:3:forces:R:3 energy=        0.8083559607 pbc="T T T"
       O    -0.0120556500     0.0000065500     0.0000000000      5.318349866     -8.820968441     -0.000000000
       H     1.0242848000     0.0977272100     0.0000000000     -2.741056380     -1.348217406     -0.000000000
       H    -0.1116367200     0.8311159400     0.0000000000     -2.577293486     10.169185898     -0.000000000
