       3
Lattice="15.0 0.0 0.0 0.0 15.0 0.0 0.0 0.0 15.0" Properties=species:S:1:pos:R:3:forces:R:3 energy=       14.0441185110 pbc="T T T"
       O    -0.0204722300     0.0202329800     0.0000000000     23.743756398   -108.931390129     -0.000000000
       H     1.1525338400     0.0381315600     0.0000000000     -5.679269054     -0.537867785     -0.000000000
       H    -0.1063103800     0.5697038700     0.0000000000    -18.064487345    109.469257965     -0.000000000
