       3
Lattice="15.0 0.0 0.0 0.0 15.0 0.0 0.0 0.0 15.0" Properties=species:S:1:pos:R:3:forces:R:3 energy=        0.8201233586 pbc="T T T"
       O     0.0108409000    -0.0015696900     0.0000000000    -13.058688126      3.044637935     -0.000000000
       H     0.8315185400    -0.0297954800     0.0000000000     11.960397132     -0.132800472     -0.000000000
       H    -0.2822584900     0.9836546800     0.0000000000      1.098290994     -2.911837411     -0.000000000
