       3
Lattice="15.0 0.0 0.0 0.0 15.0 0.0 0.0 0.0 15.0" Properties=species:S:1:pos:R:3:forces:R:3 energy=        5.1285721243 pbc="T T T"
       O     0.0100276000     0.0077418700     0.0000000000    -31.069719331    -19.771430735     -0.000000000
       H     0.7084226500     0.0464739000     0.0000000000     37.153465372     -0.052896564     -0.000000000
       H    -0.1462531400     0.7596030300     0.0000000000     -6.083746041     19.824327300     -0.000000000
