       3
Lattice="15.0 0.0 0.0 0.0 15.0 0.0 0.0 0.0 15.0" Properties=species:S:1:pos:R:3:forces:R:3 energy=        3.5917491315 pbc="T T T"
       O     0.0246296000     0.0369028500     0.0000000000      1.959627929    -16.907512539     -0.000000000
       H     0.7689135900    -0.2723394800     0.0000000000     12.260796071     -3.470839674     -0.000000000
       H    -0.4384971100     0.6156122100     0.0000000000    -14.220423949     20.378352161     -0.000000000
