       3
Lattice="15.0 0.0 0.0 0.0 15.0 0.0 0.0 0.0 15.0" Properties=species:S:1:pos:R:3:forces:R:3 energy=        3.4042696453 pbc="T T T"
       O    -0.0183221400     0.0229953400     0.0000000000      5.787662083     -7.284972330     -0.000000000
       H     1.4624978000    -0.2377645800     0.0000000000     -5.175784905      2.101956862     -0.000000000
       H    -0.4504049900     0.8017622600     0.0000000000     -0.611877178      5.183015467     -0.000000000
