       3
Lattice="15.0 0.0 0.0 0.0 15.0 0.0 0.0 0.0 15.0" Properties=species:S:1:pos:R:3:forces:R:3 energy=        2.5476284625 pbc="T T T"
       O    -0.0056567400    -0.0435324200     0.0000000000      0.924086074      6.301153022     -0.000000000
       H     0.9566477400     0.2085793100     0.0000000000     -0.841238612     -1.101534442     -0.000000000
       H    -0.1455515600     1.4112586400     0.0000000000     -0.082847462     -5.199618580     -0.000000000
