       3
Lattice="15.0 0.0 0.0 0.0 15.0 0.0 0.0 0.0 15.0" Properties=species:S:1:pos:R:3:forces:R:3 energy=        3.0075930808 pbc="T T T"
       O    -0.0208736900     0.0093582900     0.0000000000     10.517377708    -22.832621131     -0.000000000
       H     1.2137698000     0.0297939100     0.0000000000     -6.017901395     -0.185369941     -0.000000000
       H    -0.1611749900     0.7506313000     0.0000000000     -4.499476314     23.017991072     -0.000000000
