       3
Lattice="15.0 0.0 0.0 0.0 15.0 0.0 0.0 0.0 15.0" Properties=species:S:1:pos:R:3:forces:R:3 energy=        4.2708768132 pbc="T T T"
       O     0.0365684100     0.0108550500     0.0000000000    -32.170628326     14.787705630     -0.000000000
       H     0.7012361800    -0.2848439800     0.0000000000     27.436843054     -9.560111789     -0.000000000
       H    -0.5602971000     1.0415144300     0.0000000000      4.733785272     -5.227593892     -0.000000000
