       3
Lattice="15.0 0.0 0.0 0.0 15.0 0.0 0.0 0.0 15.0" Properties=species:S:1:pos:R:3:forces:R:3 energy=        3.8908147945 pbc="T T T"
       O     0.0012095600     0.0170936100     0.0000000000      7.860057056    -37.440689201     -0.000000000
       H     0.8979076600    -0.0214594000     0.0000000000      3.678277095     -0.369954872     -0.000000000
       H    -0.1957914200     0.6791183900     0.0000000000    -11.538334151     37.810644124     -0.000000000
