       3
Lattice="15.0 0.0 0.0 0.0 15.0 0.0 0.0 0.0 15.0" Properties=species:S:1:pos:R:3:forces:R:3 energy=        0.8092926664 pbc="T T T"
       O     0.0124571100     0.0108681500     0.0000000000    -10.303759095     -3.179192774     -0.000000000
       H     0.8321425100    -0.0893895700     0.0000000000     10.997276860     -0.579605859     -0.000000000
       H    -0.3085346000     0.8458514700     0.0000000000     -0.693517764      3.758798633     -0.000000000
