       3
Lattice="15.0 0.0 0.0 0.0 15.0 0.0 0.0 0.0 15.0" Properties=species:S:1:pos:R:3:forces:R:3 energy=        2.6178525027 pbc="T T T"
       O     0.0178853500    -0.0132124100     0.0000000000     -4.162254018      3.675034109     -0.000000000
       H     0.9526618100    -0.1739958000     0.0000000000      1.010054034      1.401903094     -0.000000000
       H    -0.5152057900     1.3126349800     0.0000000000      3.152200035     -5.076937203     -0.000000000
