       3
Lattice="15.0 0.0 0.0 0.0 15.0 0.0 0.0 0.0 15.0" Properties=species:S:1:pos:R:3:forces:R:3 energy=        3.5913102227 pbc="T T T"
       O     0.0296460000     0.0330085500     0.0000000000    -16.851177328     -2.303169331     -0.000000000
       H     0.7051010500    -0.2723386900     0.0000000000     23.256390966     -8.723689730     -0.000000000
       H    -0.4542983400     0.6774166400     0.0000000000     -6.405213638     11.026859010     -0.000000000
