       3
Lattice="15.0 0.0 0.0 0.0 15.0 0.0 0.0 0.0 15.0" Properties=species:S:1:pos:R:3:forces:R:3 energy=        1.4055644724 pbc="T T T"
       O     0.0053010000    -0.0190608500     0.0000000000    -11.054676713      4.792884266     -0.000000000
       H     0.8315588900     0.0935611300     0.0000000000     10.785816380      0.554387130     -0.000000000
       H    -0.1943733300     1.1378951600     0.0000000000      0.268860333     -5.347271396     -0.000000000
