       3
Lattice="15.0 0.0 0.0 0.0 15.0 0.0 0.0 0.0 15.0" Properties=species:S:1:pos:R:3:forces:R:3 energy=       23.1115507372 pbc="T T T"
       O     0.0497115800     0.0174313400     0.0000000000   -147.590182708    105.360092779     -0.000000000
       H     0.4498508900    -0.2723355600     0.0000000000    143.417218241   -100.825168187     -0.000000000
       H    -0.5175032500     0.9246343600     0.0000000000      4.172964467     -4.534924592     -0.000000000
