       3
Lattice="15.0 0.0 0.0 0.0 15.0 0.0 0.0 0.0 15.0" Properties=species:S:1:pos:R:3:forces:R:3 energy=        1.8513104149 pbc="T T T"
       O    -0.0091789600    -0.0377110600     0.0000000000     -0.014710265      6.738807437     -0.000000000
       H     0.8960761000     0.2806794700     0.0000000000      1.522820281     -1.714720004     -0.000000000
       H    -0.0290779100     1.2467684900     0.0000000000     -1.508110016     -5.024087433     -0.000000000
