       3
Lattice="15.0 0.0 0.0 0.0 15.0 0.0 0.0 0.0 15.0" Properties=species:S:1:pos:R:3:forces:R:3 energy=        3.3715642832 pbc="T T T"
       O    -0.0182868000     0.0023377100     0.0000000000      5.388121205    -28.312321166     -0.000000000
       H     1.0262374100     0.1656581600     0.0000000000     -2.274484959     -2.619741494     -0.000000000
       H    -0.0146947600     0.7261872900     0.0000000000     -3.113636246     30.932062608     -0.000000000
