       3
Lattice="15.0 0.0 0.0 0.0 15.0 0.0 0.0 0.0 15.0" Properties=species:S:1:pos:R:3:forces:R:3 energy=        1.6767682965 pbc="T T T"
       O    -0.0139512800    -0.0127952100     0.0000000000      4.358694105      4.911184532     -0.000000000
       H     1.2099049300     0.0172886200     0.0000000000     -5.799957259      0.140108939     -0.000000000
       H    -0.2671737600     1.1147290900     0.0000000000      1.441263154     -5.051293471     -0.000000000
