       3
Lattice="15.0 0.0 0.0 0.0 15.0 0.0 0.0 0.0 15.0" Properties=species:S:1:pos:R:3:forces:R:3 energy=        1.4844154008 pbc="T T T"
       O     0.0038068300    -0.0209879100     0.0000000000     -2.129342518      5.593583607     -0.000000000
       H     0.9559430700     0.0214601800     0.0000000000      0.563784054      0.261660521     -0.000000000
       H    -0.2950457500     1.2405808800     0.0000000000      1.565558464     -5.855244127     -0.000000000
