       3
Lattice="15.0 0.0 0.0 0.0 15.0 0.0 0.0 0.0 15.0" Properties=species:S:1:pos:R:3:forces:R:3 energy=        0.7882231596 pbc="T T T"
       O    -0.0043303300    -0.0003975600     0.0000000000     -0.802784147     -8.515025635     -0.000000000
       H     0.8979480100     0.1018972100     0.0000000000      3.900791420     -1.294423320     -0.000000000
       H    -0.1079062600     0.8333588700     0.0000000000     -3.098007222      9.809448956     -0.000000000
