       3
Lattice="15.0 0.0 0.0 0.0 15.0 0.0 0.0 0.0 15.0" Properties=species:S:1:pos:R:3:forces:R:3 energy=        1.7968386978 pbc="T T T"
       O    -0.0061039200    -0.0026885400     0.0000000000      3.105972658      3.250261544     -0.000000000
       H     1.2085762900    -0.1102364100     0.0000000000     -5.818706832      1.450204272     -0.000000000
       H    -0.3903918300     1.0818545300     0.0000000000      2.712734174     -4.700465765     -0.000000000
