       3
Lattice="15.0 0.0 0.0 0.0 15.0 0.0 0.0 0.0 15.0" Properties=species:S:1:pos:R:3:forces:R:3 energy=        2.9256178907 pbc="T T T"
       O    -0.0430789700    -0.0088878100     0.0000000000      5.796347377     -5.871204824     -0.000000000
       H     1.4046238000     0.2127422600     0.0000000000     -4.872647842     -1.520546088     -0.000000000
       H     0.0003899700     0.8572617000     0.0000000000     -0.923699534      7.391750860     -0.000000000
