       3
Lattice="15.0 0.0 0.0 0.0 15.0 0.0 0.0 0.0 15.0" Properties=species:S:1:pos:R:3:forces:R:3 energy=        3.2711577601 pbc="T T T"
       O    -0.0012552800     0.0346249600     0.0000000000     14.301054553    -18.088941581     -0.000000000
       H     1.2104481900    -0.2890186800     0.0000000000     -6.299181242      3.233931740     -0.000000000
       H    -0.4692201900     0.6684449200     0.0000000000     -8.001873260     14.855009841     -0.000000000
