       3
Lattice="15.0 0.0 0.0 0.0 15.0 0.0 0.0 0.0 15.0" Properties=species:S:1:pos:R:3:forces:R:3 energy=       17.6813250002 pbc="T T T"
       O     0.0056567400     0.0435324200     0.0000000000     90.100718000   -111.247488670     -0.000000000
       H     0.9610155200    -0.2085793100     0.0000000000     -2.689913617      2.112469028     -0.000000000
       H    -0.3294843800     0.4466362000     0.0000000000    -87.410804383    109.135019642     -0.000000000
