       3
Lattice="15.0 0.0 0.0 0.0 15.0 0.0 0.0 0.0 15.0" Properties=species:S:1:pos:R:3:forces:R:3 energy=        5.2742991917 pbc="T T T"
       O    -0.0062716800     0.0385192700     0.0000000000     23.036938465    -28.628765956     -0.000000000
       H     1.2742607300    -0.2890194600     0.0000000000     -6.381630646      3.142522449     -0.000000000
       H    -0.4534189600     0.6066404900     0.0000000000    -16.655307820     25.486243507     -0.000000000
