       3
Lattice="15.0 0.0 0.0 0.0 15.0 0.0 0.0 0.0 15.0" Properties=species:S:1:pos:R:3:forces:R:3 energy=        1.7987415628 pbc="T T T"
       O     0.0102716800     0.0287634200     0.0000000000      9.587206756    -18.249752538     -0.000000000
       H     0.9584389400    -0.2169161700     0.0000000000     -1.633665939      1.941212651     -0.000000000
       H    -0.4001502200     0.6893680600     0.0000000000     -7.953540817     16.308539836     -0.000000000
