       3
Lattice="15.0 0.0 0.0 0.0 15.0 0.0 0.0 0.0 15.0" Properties=species:S:1:pos:R:3:forces:R:3 energy=       10.9440613528 pbc="T T T"
       O     0.0168279700    -0.0249224000     0.0000000000    -79.448504482    -18.417730655     -0.000000000
       H     0.5795496400     0.1656636400     0.0000000000     80.773475299     23.329135942     -0.000000000
       H    -0.1253033700     1.1588183000     0.0000000000     -1.324970817     -4.911405287     -0.000000000
