       3
Lattice="15.0 0.0 0.0 0.0 15.0 0.0 0.0 0.0 15.0" Properties=species:S:1:pos:R:3:forces:R:3 energy=        2.7807552092 pbc="T T T"
       O    -0.0446951800    -0.0213256400     0.0000000000      5.945126800      3.577330960     -0.000000000
       H     1.4039998300     0.2723363500     0.0000000000     -4.631142003     -1.771705139     -0.000000000
       H     0.0266660800     0.9950649100     0.0000000000     -1.313984848     -1.805625770     -0.000000000
