       3
Lattice="15.0 0.0 0.0 0.0 15.0 0.0 0.0 0.0 15.0" Properties=species:S:1:pos:R:3:forces:R:3 energy=        2.1211193481 pbc="T T T"
       O    -0.0067494500    -0.0345847800     0.0000000000      2.309985791      6.565951987     -0.000000000
       H     1.0197959600     0.1448160100     0.0000000000     -2.725329551     -0.935504554     -0.000000000
       H    -0.1913593700     1.3330169400     0.0000000000      0.415343760     -5.630447433     -0.000000000
