       3
Lattice="15.0 0.0 0.0 0.0 15.0 0.0 0.0 0.0 15.0" Properties=species:S:1:pos:R:3:forces:R:3 energy=        2.8719830026 pbc="T T T"
       O    -0.0066731300     0.0276445700     0.0000000000      5.573405682     -6.638268308     -0.000000000
       H     1.3354966900    -0.2973571000     0.0000000000     -5.755803118      2.895723786     -0.000000000
       H    -0.5082835700     0.7875679100     0.0000000000      0.182397435      3.742544471     -0.000000000
