       3
Lattice="15.0 0.0 0.0 0.0 15.0 0.0 0.0 0.0 15.0" Properties=species:S:1:pos:R:3:forces:R:3 energy=        3.9485443050 pbc="T T T"
       O     0.0035627500    -0.0420094600     0.0000000000    -17.901051033     -0.906691370     -0.000000000
       H     0.7059267800     0.2848502500     0.0000000000     19.598025480      5.555843651     -0.000000000
       H    -0.0411486700     1.3108158500     0.0000000000     -1.696974447     -4.649152281     -0.000000000
