       3
Lattice="15.0 0.0 0.0 0.0 15.0 0.0 0.0 0.0 15.0" Properties=species:S:1:pos:R:3:forces:R:3 energy=        1.7340561581 pbc="T T T"
       O    -0.0005640200     0.0148026300     0.0000000000      2.916702249     -0.724616557     -0.000000000
       H     1.2085359300    -0.2335930200     0.0000000000     -5.852791397      2.655933130     -0.000000000
       H    -0.4782769900     0.9276140500     0.0000000000      2.936089148     -1.931316573     -0.000000000
