       3
Lattice="15.0 0.0 0.0 0.0 15.0 0.0 0.0 0.0 15.0" Properties=species:S:1:pos:R:3:forces:R:3 energy=        1.0960878392 pbc="T T T"
       O    -0.0199030100    -0.0101001200     0.0000000000      4.939109039     -4.113000914     -0.000000000
       H     1.0256134400     0.2252522500     0.0000000000     -2.217295782     -2.988517308     -0.000000000
       H     0.0115813500     0.8639905000     0.0000000000     -2.721813309      7.101518273     -0.000000000
