       3
Lattice="15.0 0.0 0.0 0.0 15.0 0.0 0.0 0.0 15.0" Properties=species:S:1:pos:R:3:forces:R:3 energy=        2.6247346568 pbc="T T T"
       O     0.0024700400    -0.0330618300     0.0000000000    -13.461570720      2.879436045     -0.000000000
       H     0.7690750000     0.2210869500     0.0000000000     14.652442914      2.288691339     -0.000000000
       H    -0.0869564800     1.2325741500     0.0000000000     -1.190872194     -5.168127436     -0.000000000
