       3
Lattice="15.0 0.0 0.0 0.0 15.0 0.0 0.0 0.0 15.0" Properties=species:S:1:pos:R:3:forces:R:3 energy=        2.2165310172 pbc="T T T"
       O    -0.0156895300    -0.0357438100     0.0000000000      4.492473962      7.334718880     -0.000000000
       H     1.0842728200     0.2085777400     0.0000000000     -4.244651588     -1.740689855     -0.000000000
       H    -0.1139491000     1.2876497800     0.0000000000     -0.247822374     -5.594029025     -0.000000000
