       3
Lattice="15.0 0.0 0.0 0.0 15.0 0.0 0.0 0.0 15.0" Properties=species:S:1:pos:R:3:forces:R:3 energy=        7.0864907086 pbc="T T T"
       O    -0.0193795200     0.0112853500     0.0000000000     10.387648780    -58.388971435     -0.000000000
       H     1.0893856200     0.1018948600     0.0000000000     -4.252418894     -1.643841444     -0.000000000
       H    -0.0605025700     0.6479455800     0.0000000000     -6.135229835     60.032812880     -0.000000000
