       3
Lattice="15.0 0.0 0.0 0.0 15.0 0.0 0.0 0.0 15.0" Properties=species:S:1:pos:R:3:forces:R:3 energy=        3.1085603463 pbc="T T T"
       O    -0.0313079300     0.0062722000     0.0000000000      7.950523369    -12.985222572     -0.000000000
       H     1.4026308300     0.0214547000     0.0000000000     -5.804606947      0.113388531     -0.000000000
       H    -0.1844371500     0.8079498700     0.0000000000     -2.145916422     12.871834041     -0.000000000
