       3
Lattice="15.0 0.0 0.0 0.0 15.0 0.0 0.0 0.0 15.0" Properties=species:S:1:pos:R:3:forces:R:3 energy=        2.0795509001 pbc="T T T"
       O    -0.0302152200    -0.0026754400     0.0000000000      6.607708213     -3.989282868     -0.000000000
       H     1.3394826200     0.0852180000     0.0000000000     -5.799107972     -0.538489015     -0.000000000
       H    -0.1386293400     0.8861915800     0.0000000000     -0.808600242      4.527771883     -0.000000000
