       3
Lattice="15.0 0.0 0.0 0.0 15.0 0.0 0.0 0.0 15.0" Properties=species:S:1:pos:R:3:forces:R:3 energy=        1.8381494839 pbc="T T T"
       O     0.0174735000     0.0069738500     0.0000000000    -23.209278049      2.508338524     -0.000000000
       H     0.7683299700    -0.0893887800     0.0000000000     22.277869984     -1.981598684     -0.000000000
       H    -0.3243358300     0.9076559000     0.0000000000      0.931408065     -0.526739839     -0.000000000
