       3
Lattice="15.0 0.0 0.0 0.0 15.0 0.0 0.0 0.0 15.0" Properties=species:S:1:pos:R:3:forces:R:3 energy=        2.0916421598 pbc="T T T"
       O    -0.0170720500     0.0039008500     0.0000000000      7.836018670    -19.015605547     -0.000000000
       H     1.0880973300     0.0977264300     0.0000000000     -4.311561443     -1.355192915     -0.000000000
       H    -0.0958354900     0.7693115100     0.0000000000     -3.524457227     20.370798462     -0.000000000
