       3
Lattice="15.0 0.0 0.0 0.0 15.0 0.0 0.0 0.0 15.0" Properties=species:S:1:pos:R:3:forces:R:3 energy=       12.2969727756 pbc="T T T"
       O     0.0403700500     0.0053976100     0.0000000000    -91.245073106     38.614174919     -0.000000000
       H     0.5755637100    -0.2169114700     0.0000000000     86.861315927    -33.028133493     -0.000000000
       H    -0.4949576000     1.0601946400     0.0000000000      4.383757179     -5.586041478     -0.000000000
