       3
Lattice="15.0 0.0 0.0 0.0 15.0 0.0 0.0 0.0 15.0" Properties=species:S:1:pos:R:3:forces:R:3 energy=        1.2708898862 pbc="T T T"
       O     0.0238266900     0.0151534600     0.0000000000     -6.762613498      2.883772624     -0.000000000
       H     0.8913855000    -0.2890147600     0.0000000000      2.425387446      1.240872718     -0.000000000
       H    -0.5482263300     0.9774670700     0.0000000000      4.337226052     -4.124645343     -0.000000000
