       3
Lattice="15.0 0.0 0.0 0.0 15.0 0.0 0.0 0.0 15.0" Properties=species:S:1:pos:R:3:forces:R:3 energy=       10.4860765234 pbc="T T T"
       O    -0.0008538300     0.0454996600     0.0000000000     56.855401367    -61.029759218     -0.000000000
       H     1.1492122300    -0.2806810300     0.0000000000     -6.596253583      3.307846775     -0.000000000
       H    -0.4143555700     0.4875174900     0.0000000000    -50.259147783     57.721912444     -0.000000000
