       3
Lattice="15.0 0.0 0.0 0.0 15.0 0.0 0.0 0.0 15.0" Properties=species:S:1:pos:R:3:forces:R:3 energy=        1.5778473028 pbc="T T T"
       O     0.0211177700     0.0116632600     0.0000000000     -3.748297369      2.307530850     -0.000000000
       H     0.9539097500    -0.2931839800     0.0000000000     -0.767615655      2.303799252     -0.000000000
       H    -0.5677580200     1.0370285700     0.0000000000      4.515913024     -4.611330050     -0.000000000
