       3
Lattice="15.0 0.0 0.0 0.0 15.0 0.0 0.0 0.0 15.0" Properties=species:S:1:pos:R:3:forces:R:3 energy=       21.9392815535 pbc="T T T"
       O     0.0391552900     0.0038344700     0.0000000000   -165.943419266     54.531815256     -0.000000000
       H     0.5137037900    -0.1489797400     0.0000000000    162.336957231    -49.437810959     -0.000000000
       H    -0.4138168700     1.0170704200     0.0000000000      3.606462036     -5.094004297     -0.000000000
