       3
Lattice="15.0 0.0 0.0 0.0 15.0 0.0 0.0 0.0 15.0" Properties=species:S:1:pos:R:3:forces:R:3 energy=       38.8683392243 pbc="T T T"
       O    -0.0072070200     0.0373200500     0.0000000000    133.698626457   -274.239122916     -0.000000000
       H     1.0261567000    -0.0810550500     0.0000000000     -4.361633392      1.294422035     -0.000000000
       H    -0.1904650800     0.4177063200     0.0000000000   -129.336993066    272.944700882     -0.000000000
