       3
Lattice="15.0 0.0 0.0 0.0 15.0 0.0 0.0 0.0 15.0" Properties=species:S:1:pos:R:3:forces:R:3 energy=        2.2625084362 pbc="T T T"
       O    -0.0380625800    -0.0127821100     0.0000000000      6.283755747     -0.537203771     -0.000000000
       H     1.3408112600     0.2127430400     0.0000000000     -5.105400048     -1.667582662     -0.000000000
       H    -0.0154112600     0.9190661300     0.0000000000     -1.178355698      2.204786433     -0.000000000
