       3
Lattice="15.0 0.0 0.0 0.0 15.0 0.0 0.0 0.0 15.0" Properties=species:S:1:pos:R:3:forces:R:3 energy=        2.0334202429 pbc="T T T"
       O     0.0179970000     0.0283593200     0.0000000000     -0.013125179    -14.624585050     -0.000000000
       H     0.8321021500    -0.2127461700     0.0000000000      7.607999147     -0.660118501     -0.000000000
       H    -0.3964197600     0.6916109900     0.0000000000     -7.594873916     15.284703551     -0.000000000
