       3
Lattice="15.0 0.0 0.0 0.0 15.0 0.0 0.0 0.0 15.0" Properties=species:S:1:pos:R:3:forces:R:3 energy=        7.3832282607 pbc="T T T"
       O     0.0066731300    -0.0276445700     0.0000000000    -43.786541695    -17.258030067     -0.000000000
       H     0.5821665700     0.2973571000     0.0000000000     48.391584057     18.604781378     -0.000000000
       H     0.0332476300     1.0703269300     0.0000000000     -4.605042311     -1.346751311     -0.000000000
