       3
Lattice="15.0 0.0 0.0 0.0 15.0 0.0 0.0 0.0 15.0" Properties=species:S:1:pos:R:3:forces:R:3 energy=       16.7685386491 pbc="T T T"
       O    -0.0178853500     0.0132124100     0.0000000000     -7.899057521   -126.041676311     -0.000000000
       H     0.9650014500     0.1739958000     0.0000000000      0.678832284     -3.640367961     -0.000000000
       H     0.0401698500     0.5452598600     0.0000000000      7.220225237    129.682044323     -0.000000000
