       3
Lattice="15.0 0.0 0.0 0.0 15.0 0.0 0.0 0.0 15.0" Properties=species:S:1:pos:R:3:forces:R:3 energy=        0.5435414298 pbc="T T T"
       O     0.0081319700    -0.0050598800     0.0000000000     -6.648636493      4.105008482     -0.000000000
       H     0.8940427900    -0.0339646900     0.0000000000      4.962823826      0.293949530     -0.000000000
       H    -0.3017901800     1.0432161800     0.0000000000      1.685812666     -4.398957960     -0.000000000
