       3
Lattice="15.0 0.0 0.0 0.0 15.0 0.0 0.0 0.0 15.0" Properties=species:S:1:pos:R:3:forces:R:3 energy=        7.5863351315 pbc="T T T"
       O    -0.0207163100    -0.0007885700     0.0000000000     -8.748999784    -46.497210552     -0.000000000
       H     0.9025175500     0.3015216200     0.0000000000      5.288478004     -5.311226210     -0.000000000
       H     0.1475867000     0.6399388500     0.0000000000      3.460521781     51.808436761     -0.000000000
