       3
Lattice="15.0 0.0 0.0 0.0 15.0 0.0 0.0 0.0 15.0" Properties=species:S:1:pos:R:3:forces:R:3 energy=       11.1035842664 pbc="T T T"
       O     0.0029478100     0.0400422200     0.0000000000     56.518992774    -75.491012754     -0.000000000
       H     1.0235397700    -0.2127485200     0.0000000000     -4.553935904      2.548170690     -0.000000000
       H    -0.3490160700     0.5061977000     0.0000000000    -51.965056870     72.942842065     -0.000000000
