       3
Lattice="15.0 0.0 0.0 0.0 15.0 0.0 0.0 0.0 15.0" Properties=species:S:1:pos:R:3:forces:R:3 energy=        3.3336831740 pbc="T T T"
       O     0.0044877000    -0.0097493000     0.0000000000    -27.019243202     -6.487115396     -0.000000000
       H     0.7084630100     0.1698305000     0.0000000000     30.544645722      3.438719947     -0.000000000
       H    -0.0583679900     0.9138435100     0.0000000000     -3.525402520      3.048395449     -0.000000000
