       3
Lattice="15.0 0.0 0.0 0.0 15.0 0.0 0.0 0.0 15.0" Properties=species:S:1:pos:R:3:forces:R:3 energy=        2.2409933294 pbc="T T T"
       O    -0.0002388900    -0.0365520200     0.0000000000     -6.647058811      4.954185224     -0.000000000
       H     0.8315992400     0.2169177300     0.0000000000      7.360212511      0.417502768     -0.000000000
       H    -0.1064881700     1.2921356500     0.0000000000     -0.713153700     -5.371687992     -0.000000000
