       3
Lattice="15.0 0.0 0.0 0.0 15.0 0.0 0.0 0.0 15.0" Properties=species:S:1:pos:R:3:forces:R:3 energy=        2.3310413813 pbc="T T T"
       O    -0.0357551100    -0.0201666100     0.0000000000      6.015681400      4.752140386     -0.000000000
       H     1.3395229700     0.2085746100     0.0000000000     -5.246153306     -1.501439594     -0.000000000
       H    -0.0507441800     1.0404320600     0.0000000000     -0.769528146     -3.250700792     -0.000000000
