       3
Lattice="15.0 0.0 0.0 0.0 15.0 0.0 0.0 0.0 15.0" Properties=species:S:1:pos:R:3:forces:R:3 energy=        2.2385042740 pbc="T T T"
       O     0.0055113900    -0.0276201800     0.0000000000    -13.263519527      4.188037669     -0.000000000
       H     0.8032415000     0.1399277900     0.0000000000     13.315678750      1.473365706     -0.000000000
       H    -0.1693935400     1.2273710400     0.0000000000     -0.052159275     -5.661403375     -0.000000000
