       3
Lattice="15.0 0.0 0.0 0.0 15.0 0.0 0.0 0.0 15.0" Properties=species:S:1:pos:R:3:forces:R:3 energy=        1.9523945968 pbc="T T T"
       O     0.0008316900    -0.0263468600     0.0000000000      0.378088817      5.618974908     -0.000000000
       H     1.0052527800     0.0367217100     0.0000000000     -1.820343543      0.106573253     -0.000000000
       H    -0.2971372200     1.3103700000     0.0000000000      1.442254726     -5.725548161     -0.000000000
