       3
Lattice="15.0 0.0 0.0 0.0 15.0 0.0 0.0 0.0 15.0" Properties=species:S:1:pos:R:3:forces:R:3 energy=        2.6221955324 pbc="T T T"
       O     0.0201697700     0.0055629100     0.0000000000    -30.102439937      5.122238879     -0.000000000
       H     0.7420229900    -0.0977437900     0.0000000000     28.471651733     -3.019019965     -0.000000000
       H    -0.3408208100     0.9384034200     0.0000000000      1.630788204     -2.103218863     -0.000000000
