       3
Lattice="15.0 0.0 0.0 0.0 15.0 0.0 0.0 0.0 15.0" Properties=species:S:1:pos:R:3:forces:R:3 energy=        1.7148170578 pbc="T T T"
       O     0.0101870600    -0.0077626600     0.0000000000    -20.528675121      2.861266976     -0.000000000
       H     0.7789600600     0.0385891600     0.0000000000     20.284278743      0.534052729     -0.000000000
       H    -0.2193214000     1.0135565100     0.0000000000      0.244396326     -3.395319705     -0.000000000
