       3
Lattice="15.0 0.0 0.0 0.0 15.0 0.0 0.0 0.0 15.0" Properties=species:S:1:pos:R:3:forces:R:3 energy=        0.5634787606 pbc="T T T"
       O    -0.0066961000    -0.0122506700     0.0000000000      2.670998002      4.794173675     -0.000000000
       H     1.0443017900     0.0547547700     0.0000000000     -3.369405750     -0.378857218     -0.000000000
       H    -0.2167145700     1.0686199000     0.0000000000      0.698407748     -4.415316457     -0.000000000
