       3
Lattice="15.0 0.0 0.0 0.0 15.0 0.0 0.0 0.0 15.0" Properties=species:S:1:pos:R:3:forces:R:3 energy=        1.4027529919 pbc="T T T"
       O    -0.0145004500     0.0070929000     0.0000000000      8.161728692    -11.417459695     -0.000000000
       H     1.1532084300     0.0054156700     0.0000000000     -5.639740946      0.088682224     -0.000000000
       H    -0.2017621400     0.8109628400     0.0000000000     -2.521987745     11.328777471     -0.000000000
