       3
Lattice="15.0 0.0 0.0 0.0 15.0 0.0 0.0 0.0 15.0" Properties=species:S:1:pos:R:3:forces:R:3 energy=        1.6806023291 pbc="T T T"
       O    -0.0281880000    -0.0172906600     0.0000000000      6.119085819      4.425811911     -0.000000000
       H     1.2502322100     0.1755919600     0.0000000000     -5.453618495     -1.489381732     -0.000000000
       H    -0.0815497400     1.0277710800     0.0000000000     -0.665467324     -2.936430179     -0.000000000
