       3
Lattice="15.0 0.0 0.0 0.0 15.0 0.0 0.0 0.0 15.0" Properties=species:S:1:pos:R:3:forces:R:3 energy=        7.2301724976 pbc="T T T"
       O    -0.0157783200     0.0135526500     0.0000000000     12.934706028    -61.249305615     -0.000000000
       H     1.0604583500     0.0728321900     0.0000000000     -3.863728642     -1.264024228     -0.000000000
       H    -0.0887297100     0.6410245600     0.0000000000     -9.070977385     62.513329843     -0.000000000
