       3
Lattice="15.0 0.0 0.0 0.0 15.0 0.0 0.0 0.0 15.0" Properties=species:S:1:pos:R:3:forces:R:3 energy=        1.8029943052 pbc="T T T"
       O     0.0164282700    -0.0040198200     0.0000000000    -19.924747849      5.458171304     -0.000000000
       H     0.7973913700    -0.0644333300     0.0000000000     17.703409108     -0.564511265     -0.000000000
       H    -0.3368077800     1.0571779800     0.0000000000      2.221338741     -4.893660039     -0.000000000
