       3
Lattice="15.0 0.0 0.0 0.0 15.0 0.0 0.0 0.0 15.0" Properties=species:S:1:pos:R:3:forces:R:3 energy=        0.6434757211 pbc="T T T"
       O     0.0023521200     0.0103829100     0.0000000000      1.357331200    -10.583929665     -0.000000000
       H     0.9272385700    -0.0371711200     0.0000000000      1.684005386      0.097281488     -0.000000000
       H    -0.2432558600     0.8013341400     0.0000000000     -3.041336585     10.486648177     -0.000000000
