       3
Lattice="15.0 0.0 0.0 0.0 15.0 0.0 0.0 0.0 15.0" Properties=species:S:1:pos:R:3:forces:R:3 energy=        1.3715353117 pbc="T T T"
       O     0.0196747300     0.0074555200     0.0000000000     -5.112886282      3.143110564     -0.000000000
       H     0.9309288600    -0.2442963200     0.0000000000      0.936027157      1.677667510     -0.000000000
       H    -0.5218738000     1.0549204200     0.0000000000      4.176859073     -4.820778074     -0.000000000
