3
Lattice="15.0 0.0 0.0 0.0 15.0 0.0 0.0 0.0 15.0" Properties=species:S:1:pos:R:3 energy=-76.3575310289 pbc="T T T"
O        0.00000000       0.00000000       0.00000000
H        0.95883163       0.00000000       0.00000000
H       -0.23751797       0.92894742       0.00000000
3
Lattice="15.0 0.0 0.0 0.0 15.0 0.0 0.0 0.0 15.0" Properties=species:S:1:pos:R:3 energy=-76.2857064723 pbc="T T T"
O   	    0.00000	    0.00000	    0.00000
H   	    0.75000	    0.00000	    0.00000
H   	   -0.23752	    0.92895	    0.00000
3
Lattice="15.0 0.0 0.0 0.0 15.0 0.0 0.0 0.0 15.0" Properties=species:S:1:pos:R:3 energy=-76.3168222019 pbc="T T T"
O   	    0.00000	    0.00000	    0.00000
H   	    0.79231	    0.00000	    0.00000
H   	   -0.23752	    0.92895	    0.00000
3
Lattice="15.0 0.0 0.0 0.0 15.0 0.0 0.0 0.0 15.0" Properties=species:S:1:pos:R:3 energy=-76.3372512053 pbc="T T T"
O   	    0.00000	    0.00000	    0.00000
H   	    0.83462	    0.00000	    0.00000
H   	   -0.23752	    0.92895	    0.00000
3
Lattice="15.0 0.0 0.0 0.0 15.0 0.0 0.0 0.0 15.0" Properties=species:S:1:pos:R:3 energy=-76.3496016546 pbc="T T T"
O   	    0.00000	    0.00000	    0.00000
H   	    0.87692	    0.00000	    0.00000
H   	   -0.23752	    0.92895	    0.00000
3
Lattice="15.0 0.0 0.0 0.0 15.0 0.0 0.0 0.0 15.0" Properties=species:S:1:pos:R:3 energy=-76.3558577687 pbc="T T T"
O   	    0.00000	    0.00000	    0.00000
H   	    0.91923	    0.00000	    0.00000
H   	   -0.23752	    0.92895	    0.00000
3
Lattice="15.0 0.0 0.0 0.0 15.0 0.0 0.0 0.0 15.0" Properties=species:S:1:pos:R:3 energy=-76.3575240507 pbc="T T T"
O   	    0.00000	    0.00000	    0.00000
H   	    0.96154	    0.00000	    0.00000
H   	   -0.23752	    0.92895	    0.00000
3
Lattice="15.0 0.0 0.0 0.0 15.0 0.0 0.0 0.0 15.0" Properties=species:S:1:pos:R:3 energy=-76.3557555220 pbc="T T T"
O   	    0.00000	    0.00000	    0.00000
H   	    1.00385	    0.00000	    0.00000
H   	   -0.23752	    0.92895	    0.00000
3
Lattice="15.0 0.0 0.0 0.0 15.0 0.0 0.0 0.0 15.0" Properties=species:S:1:pos:R:3 energy=-76.3514417692 pbc="T T T"
O   	    0.00000	    0.00000	    0.00000
H   	    1.04615	    0.00000	    0.00000
H   	   -0.23752	    0.92895	    0.00000
3
Lattice="15.0 0.0 0.0 0.0 15.0 0.0 0.0 0.0 15.0" Properties=species:S:1:pos:R:3 energy=-76.3452666871 pbc="T T T"
O   	    0.00000	    0.00000	    0.00000
H   	    1.08846	    0.00000	    0.00000
H   	   -0.23752	    0.92895	    0.00000
3
Lattice="15.0 0.0 0.0 0.0 15.0 0.0 0.0 0.0 15.0" Properties=species:S:1:pos:R:3 energy=-76.3377629306 pbc="T T T"
O   	    0.00000	    0.00000	    0.00000
H   	    1.13077	    0.00000	    0.00000
H   	   -0.23752	    0.92895	    0.00000
3
Lattice="15.0 0.0 0.0 0.0 15.0 0.0 0.0 0.0 15.0" Properties=species:S:1:pos:R:3 energy=-76.3293441845 pbc="T T T"
O   	    0.00000	    0.00000	    0.00000
H   	    1.17308	    0.00000	    0.00000
H   	   -0.23752	    0.92895	    0.00000
3
Lattice="15.0 0.0 0.0 0.0 15.0 0.0 0.0 0.0 15.0" Properties=species:S:1:pos:R:3 energy=-76.3203350445 pbc="T T T"
O   	    0.00000	    0.00000	    0.00000
H   	    1.21538	    0.00000	    0.00000
H   	   -0.23752	    0.92895	    0.00000
3
Lattice="15.0 0.0 0.0 0.0 15.0 0.0 0.0 0.0 15.0" Properties=species:S:1:pos:R:3 energy=-76.3109826600 pbc="T T T"
O   	    0.00000	    0.00000	    0.00000
H   	    1.25769	    0.00000	    0.00000
H   	   -0.23752	    0.92895	    0.00000
3
Lattice="15.0 0.0 0.0 0.0 15.0 0.0 0.0 0.0 15.0" Properties=species:S:1:pos:R:3 energy=-76.3014850127 pbc="T T T"
O   	    0.00000	    0.00000	    0.00000
H   	    1.30000	    0.00000	    0.00000
H   	   -0.23752	    0.92895	    0.00000