       3
Lattice="15.0 0.0 0.0 0.0 15.0 0.0 0.0 0.0 15.0" Properties=species:S:1:pos:R:3:forces:R:3 energy=        0.9621787257 pbc="T T T"
       O     0.0000000000     0.0000000000     0.0000000000     -1.564447232      5.236195059     -0.000000000
       H     0.9655200000     0.0000000000     0.0000000000     -0.188484834      0.382923676     -0.000000000
       H    -0.2989700000     1.1692800000     0.0000000000      1.752932066     -5.619118735     -0.000000000
