       3
Lattice="15.0 0.0 0.0 0.0 15.0 0.0 0.0 0.0 15.0" Properties=species:S:1:pos:R:3:forces:R:3 energy=        3.1553159266 pbc="T T T"
       O     0.0000000000     0.0000000000     0.0000000000      3.897099006      5.056500523     -0.000000000
       H     1.3517200000     0.0000000000     0.0000000000     -5.845886953      0.487196151     -0.000000000
       H    -0.3169100000     1.2394400000     0.0000000000      1.948787947     -5.543696725     -0.000000000
