       3
Lattice="15.0 0.0 0.0 0.0 15.0 0.0 0.0 0.0 15.0" Properties=species:S:1:pos:R:3:forces:R:3 energy=        2.8860069754 pbc="T T T"
       O     0.0000000000     0.0000000000     0.0000000000      3.891697938      4.658666344     -0.000000000
       H     1.4000000000     0.0000000000     0.0000000000     -5.762414044      0.459961882     -0.000000000
       H    -0.2929900000     1.1459000000     0.0000000000      1.870716054     -5.118628226     -0.000000000
