       3
Lattice="15.0 0.0 0.0 0.0 15.0 0.0 0.0 0.0 15.0" Properties=species:S:1:pos:R:3:forces:R:3 energy=        0.1413587257 pbc="T T T"
       O     0.0000000000     0.0000000000     0.0000000000      0.286262287     -4.059563338     -0.000000000
       H     0.9413800000     0.0000000000     0.0000000000      0.949162826     -0.146932033     -0.000000000
       H    -0.2212400000     0.8652600000     0.0000000000     -1.235425114      4.206495371     -0.000000000
