       3
Lattice="15.0 0.0 0.0 0.0 15.0 0.0 0.0 0.0 15.0" Properties=species:S:1:pos:R:3:forces:R:3 energy=        0.3133827242 pbc="T T T"
       O     0.0000000000     0.0000000000     0.0000000000     -5.676962156     -2.102789952     -0.000000000
       H     0.8689700000     0.0000000000     0.0000000000      6.535546209     -0.260159973     -0.000000000
       H    -0.2272200000     0.8886500000     0.0000000000     -0.858584002      2.362949925     -0.000000000
