       3
Lattice="15.0 0.0 0.0 0.0 15.0 0.0 0.0 0.0 15.0" Properties=species:S:1:pos:R:3:forces:R:3 energy=        1.8131835161 pbc="T T T"
       O     0.0000000000     0.0000000000     0.0000000000      1.062656413      5.233816633     -0.000000000
       H     1.0379300000     0.0000000000     0.0000000000     -2.955018184      0.521458380     -0.000000000
       H    -0.3288700000     1.2862100000     0.0000000000      1.892361719     -5.755275013     -0.000000000
