       3
Lattice="15.0 0.0 0.0 0.0 15.0 0.0 0.0 0.0 15.0" Properties=species:S:1:pos:R:3:forces:R:3 energy=        0.6869862729 pbc="T T T"
       O     0.0000000000     0.0000000000     0.0000000000      4.060877223      2.593125215     -0.000000000
       H     1.1344800000     0.0000000000     0.0000000000     -5.156966889      0.312942329     -0.000000000
       H    -0.2571100000     1.0055800000     0.0000000000      1.096089666     -2.906067544     -0.000000000
