       3
Lattice="15.0 0.0 0.0 0.0 15.0 0.0 0.0 0.0 15.0" Properties=species:S:1:pos:R:3:forces:R:3 energy=        2.2834862053 pbc="T T T"
       O     0.0000000000     0.0000000000     0.0000000000    -14.115377777      5.503937784     -0.000000000
       H     0.8206900000     0.0000000000     0.0000000000     12.300213878      0.450391563     -0.000000000
       H    -0.3228900000     1.2628200000     0.0000000000      1.815163899     -5.954329399     -0.000000000
