       3
Lattice="15.0 0.0 0.0 0.0 15.0 0.0 0.0 0.0 15.0" Properties=species:S:1:pos:R:3:forces:R:3 energy=        2.1841189340 pbc="T T T"
       O     0.0000000000     0.0000000000     0.0000000000      0.263505545      5.019165928     -0.000000000
       H     1.0137900000     0.0000000000     0.0000000000     -2.116317303      0.567732808     -0.000000000
       H    -0.3468000000     1.3563700000     0.0000000000      1.852811809     -5.586898735     -0.000000000
