       3
Lattice="15.0 0.0 0.0 0.0 15.0 0.0 0.0 0.0 15.0" Properties=species:S:1:pos:R:3:forces:R:3 energy=        2.0728027022 pbc="T T T"
       O     0.0000000000     0.0000000000     0.0000000000      8.878619389    -23.496348743     -0.000000000
       H     1.0137900000     0.0000000000     0.0000000000     -2.522917097     -0.210438003     -0.000000000
       H    -0.1853600000     0.7249600000     0.0000000000     -6.355702292     23.706786746     -0.000000000
