       3
Lattice="15.0 0.0 0.0 0.0 15.0 0.0 0.0 0.0 15.0" Properties=species:S:1:pos:R:3:forces:R:3 energy=        0.2909157195 pbc="T T T"
       O     0.0000000000     0.0000000000     0.0000000000      1.182465506      3.417719269     -0.000000000
       H     1.0137900000     0.0000000000     0.0000000000     -2.344097456      0.231906416     -0.000000000
       H    -0.2630900000     1.0289700000     0.0000000000      1.161631950     -3.649625685     -0.000000000
