       3
Lattice="15.0 0.0 0.0 0.0 15.0 0.0 0.0 0.0 15.0" Properties=species:S:1:pos:R:3:forces:R:3 energy=        4.4034647731 pbc="T T T"
       O     0.0000000000     0.0000000000     0.0000000000    -32.232636319      5.549917101     -0.000000000
       H     0.7241400000     0.0000000000     0.0000000000     30.433278181      0.464526621     -0.000000000
       H    -0.3288700000     1.2862100000     0.0000000000      1.799358138     -6.014443722     -0.000000000
