       3
Lattice="15.0 0.0 0.0 0.0 15.0 0.0 0.0 0.0 15.0" Properties=species:S:1:pos:R:3:forces:R:3 energy=        2.7458878699 pbc="T T T"
       O     0.0000000000     0.0000000000     0.0000000000      3.541992314      5.007785705     -0.000000000
       H     1.1827600000     0.0000000000     0.0000000000     -5.437299593      0.537978394     -0.000000000
       H    -0.3408200000     1.3329800000     0.0000000000      1.895307279     -5.545764150     -0.000000000
