       3
Lattice="15.0 0.0 0.0 0.0 15.0 0.0 0.0 0.0 15.0" Properties=species:S:1:pos:R:3:forces:R:3 energy=        1.4104261375 pbc="T T T"
       O     0.0000000000     0.0000000000     0.0000000000      5.973899309     -1.599159198     -0.000000000
       H     1.2793100000     0.0000000000     0.0000000000     -6.124801435      0.337544970     -0.000000000
       H    -0.2331900000     0.9120400000     0.0000000000      0.150902178      1.261614229     -0.000000000
