       3
Lattice="15.0 0.0 0.0 0.0 15.0 0.0 0.0 0.0 15.0" Properties=species:S:1:pos:R:3:forces:R:3 energy=        2.2320074331 pbc="T T T"
       O     0.0000000000     0.0000000000     0.0000000000    -25.460078612      4.029807638     -0.000000000
       H     0.7482800000     0.0000000000     0.0000000000     24.572568143     -0.145328075     -0.000000000
       H    -0.2630900000     1.0289700000     0.0000000000      0.887510469     -3.884479563     -0.000000000
