       3
Lattice="15.0 0.0 0.0 0.0 15.0 0.0 0.0 0.0 15.0" Properties=species:S:1:pos:R:3:forces:R:3 energy=        1.8398790042 pbc="T T T"
       O     0.0000000000     0.0000000000     0.0000000000      5.510460111     -0.427944280     -0.000000000
       H     1.3517200000     0.0000000000     0.0000000000     -6.050410953      0.381822524     -0.000000000
       H    -0.2391700000     0.9354300000     0.0000000000      0.539950842      0.046121704     -0.000000000
