       3
Lattice="15.0 0.0 0.0 0.0 15.0 0.0 0.0 0.0 15.0" Properties=species:S:1:pos:R:3:forces:R:3 energy=        3.4381412630 pbc="T T T"
       O     0.0000000000     0.0000000000     0.0000000000      3.881910207      5.043487958     -0.000000000
       H     1.3517200000     0.0000000000     0.0000000000     -5.817874719      0.494710204     -0.000000000
       H    -0.3288700000     1.2862100000     0.0000000000      1.935964513     -5.538198110     -0.000000000
