       3
Lattice="15.0 0.0 0.0 0.0 15.0 0.0 0.0 0.0 15.0" Properties=species:S:1:pos:R:3:forces:R:3 energy=        0.0462115540 pbc="T T T"
       O     0.0000000000     0.0000000000     0.0000000000      0.991784898      1.277655298     -0.000000000
       H     0.9896600000     0.0000000000     0.0000000000     -1.445596544      0.098721203     -0.000000000
       H    -0.2451500000     0.9588100000     0.0000000000      0.453811646     -1.376376501     -0.000000000
