       3
Lattice="15.0 0.0 0.0 0.0 15.0 0.0 0.0 0.0 15.0" Properties=species:S:1:pos:R:3:forces:R:3 energy=        0.8278596753 pbc="T T T"
       O     0.0000000000     0.0000000000     0.0000000000     -6.074133659      5.056079942     -0.000000000
       H     0.8931000000     0.0000000000     0.0000000000      4.507728839      0.260280404     -0.000000000
       H    -0.2870100000     1.1225100000     0.0000000000      1.566404768     -5.316360345     -0.000000000
