       3
Lattice="15.0 0.0 0.0 0.0 15.0 0.0 0.0 0.0 15.0" Properties=species:S:1:pos:R:3:forces:R:3 energy=        1.1696302344 pbc="T T T"
       O     0.0000000000     0.0000000000     0.0000000000      4.481080627      3.096482095     -0.000000000
       H     1.2069000000     0.0000000000     0.0000000000     -5.812092717      0.377497823     -0.000000000
       H    -0.2630900000     1.0289700000     0.0000000000      1.331012090     -3.473979918     -0.000000000
