       3
Lattice="15.0 0.0 0.0 0.0 15.0 0.0 0.0 0.0 15.0" Properties=species:S:1:pos:R:3:forces:R:3 energy=        1.8927402481 pbc="T T T"
       O     0.0000000000     0.0000000000     0.0000000000      4.626284261      2.952115407     -0.000000000
       H     1.3275900000     0.0000000000     0.0000000000     -6.027951019      0.418437981     -0.000000000
       H    -0.2630900000     1.0289700000     0.0000000000      1.401666706     -3.370553388     -0.000000000
