       3
Lattice="15.0 0.0 0.0 0.0 15.0 0.0 0.0 0.0 15.0" Properties=species:S:1:pos:R:3:forces:R:3 energy=        0.8278676211 pbc="T T T"
       O     0.0000000000     0.0000000000     0.0000000000      6.402247715     -4.632125810     -0.000000000
       H     1.1586200000     0.0000000000     0.0000000000     -5.537985274      0.200744888     -0.000000000
       H    -0.2212400000     0.8652600000     0.0000000000     -0.864262440      4.431380923     -0.000000000
