       3
Lattice="15.0 0.0 0.0 0.0 15.0 0.0 0.0 0.0 15.0" Properties=species:S:1:pos:R:3:forces:R:3 energy=        1.2900123122 pbc="T T T"
       O     0.0000000000     0.0000000000     0.0000000000      7.826177768     -9.192345390     -0.000000000
       H     1.1827600000     0.0000000000     0.0000000000     -5.792411376      0.186155721     -0.000000000
       H    -0.2092800000     0.8185000000     0.0000000000     -2.033766392      9.006189669     -0.000000000
