       3
Lattice="15.0 0.0 0.0 0.0 15.0 0.0 0.0 0.0 15.0" Properties=species:S:1:pos:R:3:forces:R:3 energy=        0.4897331372 pbc="T T T"
       O     0.0000000000     0.0000000000     0.0000000000      5.331060686     -2.771016996     -0.000000000
       H     1.1103400000     0.0000000000     0.0000000000     -4.874638134      0.167491972     -0.000000000
       H    -0.2272200000     0.8886500000     0.0000000000     -0.456422551      2.603524973     -0.000000000
