       3
Lattice="15.0 0.0 0.0 0.0 15.0 0.0 0.0 0.0 15.0" Properties=species:S:1:pos:R:3:forces:R:3 energy=        3.8897030434 pbc="T T T"
       O     0.0000000000     0.0000000000     0.0000000000    -26.591646124      5.436093848     -0.000000000
       H     0.7482800000     0.0000000000     0.0000000000     24.779890121      0.510041236     -0.000000000
       H    -0.3348400000     1.3095900000     0.0000000000      1.811756003     -5.946135135     -0.000000000
