       3
Lattice="15.0 0.0 0.0 0.0 15.0 0.0 0.0 0.0 15.0" Properties=species:S:1:pos:R:3:forces:R:3 energy=        1.3969536742 pbc="T T T"
       O     0.0000000000     0.0000000000     0.0000000000     -6.370766290      5.448310964     -0.000000000
       H     0.8931000000     0.0000000000     0.0000000000      4.572614771      0.409125030     -0.000000000
       H    -0.3109300000     1.2160500000     0.0000000000      1.798151518     -5.857435994     -0.000000000
