       3
Lattice="15.0 0.0 0.0 0.0 15.0 0.0 0.0 0.0 15.0" Properties=species:S:1:pos:R:3:forces:R:3 energy=        1.6113224179 pbc="T T T"
       O     0.0000000000     0.0000000000     0.0000000000      3.750957639      4.830905963     -0.000000000
       H     1.1827600000     0.0000000000     0.0000000000     -5.564448675      0.449040962     -0.000000000
       H    -0.2929900000     1.1459000000     0.0000000000      1.813491036     -5.279946977     -0.000000000
