       3
Lattice="15.0 0.0 0.0 0.0 15.0 0.0 0.0 0.0 15.0" Properties=species:S:1:pos:R:3:forces:R:3 energy=        2.3519894137 pbc="T T T"
       O     0.0000000000     0.0000000000     0.0000000000      3.039226377      5.105046007     -0.000000000
       H     1.1344800000     0.0000000000     0.0000000000     -4.944748705      0.534995347     -0.000000000
       H    -0.3348400000     1.3095900000     0.0000000000      1.905522277     -5.640041354     -0.000000000
