       3
Lattice="15.0 0.0 0.0 0.0 15.0 0.0 0.0 0.0 15.0" Properties=species:S:1:pos:R:3:forces:R:3 energy=        3.0510320476 pbc="T T T"
       O     0.0000000000     0.0000000000     0.0000000000     10.764758521    -19.659539769     -0.000000000
       H     1.3034500000     0.0000000000     0.0000000000     -6.252951911      0.257755939     -0.000000000
       H    -0.1913400000     0.7483400000     0.0000000000     -4.511806610     19.401783830     -0.000000000
