       3
Lattice="15.0 0.0 0.0 0.0 15.0 0.0 0.0 0.0 15.0" Properties=species:S:1:pos:R:3:forces:R:3 energy=        1.7744839156 pbc="T T T"
       O     0.0000000000     0.0000000000     0.0000000000      4.243324590      4.295071099     -0.000000000
       H     1.2551700000     0.0000000000     0.0000000000     -5.953731309      0.438027842     -0.000000000
       H    -0.2810300000     1.0991200000     0.0000000000      1.710406668     -4.733098941     -0.000000000
