       3
Lattice="15.0 0.0 0.0 0.0 15.0 0.0 0.0 0.0 15.0" Properties=species:S:1:pos:R:3:forces:R:3 energy=        2.1728196835 pbc="T T T"
       O     0.0000000000     0.0000000000     0.0000000000    -21.293993289      5.282002369     -0.000000000
       H     0.7724100000     0.0000000000     0.0000000000     19.812313146      0.138956467     -0.000000000
       H    -0.2870100000     1.1225100000     0.0000000000      1.481680092     -5.420958836     -0.000000000
