       3
Lattice="15.0 0.0 0.0 0.0 15.0 0.0 0.0 0.0 15.0" Properties=species:S:1:pos:R:3:forces:R:3 energy=        3.0695170034 pbc="T T T"
       O     0.0000000000     0.0000000000     0.0000000000      9.502769117    -15.817037702     -0.000000000
       H     1.3758600000     0.0000000000     0.0000000000     -6.106654632      0.317934642     -0.000000000
       H    -0.1973200000     0.7717200000     0.0000000000     -3.396114485     15.499103060     -0.000000000
