       3
Lattice="15.0 0.0 0.0 0.0 15.0 0.0 0.0 0.0 15.0" Properties=species:S:1:pos:R:3:forces:R:3 energy=        1.1154834321 pbc="T T T"
       O     0.0000000000     0.0000000000     0.0000000000      6.542786285    -14.937054398     -0.000000000
       H     1.0137900000     0.0000000000     0.0000000000     -2.496537103     -0.144653983     -0.000000000
       H    -0.1973200000     0.7717200000     0.0000000000     -4.046249233     15.081708381     -0.000000000
