       3
Lattice="15.0 0.0 0.0 0.0 15.0 0.0 0.0 0.0 15.0" Properties=species:S:1:pos:R:3:forces:R:3 energy=        1.7062466930 pbc="T T T"
       O     0.0000000000     0.0000000000     0.0000000000      5.919135660     -1.668376208     -0.000000000
       H     1.3275900000     0.0000000000     0.0000000000     -6.111251047      0.361527923     -0.000000000
       H    -0.2331900000     0.9120400000     0.0000000000      0.192115387      1.306848285     -0.000000000
