       3
Lattice="15.0 0.0 0.0 0.0 15.0 0.0 0.0 0.0 15.0" Properties=species:S:1:pos:R:3:forces:R:3 energy=        2.6606740622 pbc="T T T"
       O     0.0000000000     0.0000000000     0.0000000000    -29.525791260     -0.149654010     -0.000000000
       H     0.7241400000     0.0000000000     0.0000000000     30.168148572     -0.575514975     -0.000000000
       H    -0.2331900000     0.9120400000     0.0000000000     -0.642357364      0.725169036     -0.000000000
