       3
Lattice="15.0 0.0 0.0 0.0 15.0 0.0 0.0 0.0 15.0" Properties=species:S:1:pos:R:3:forces:R:3 energy=        1.9475561947 pbc="T T T"
       O     0.0000000000     0.0000000000     0.0000000000      2.705138977      5.209266083     -0.000000000
       H     1.1103400000     0.0000000000     0.0000000000     -4.617116063      0.511057491     -0.000000000
       H    -0.3228900000     1.2628200000     0.0000000000      1.911977086     -5.720323574     -0.000000000
