       3
Lattice="15.0 0.0 0.0 0.0 15.0 0.0 0.0 0.0 15.0" Properties=species:S:1:pos:R:3:forces:R:3 energy=        2.3217917114 pbc="T T T"
       O     0.0000000000     0.0000000000     0.0000000000    -11.185152444      5.342694985     -0.000000000
       H     0.8448300000     0.0000000000     0.0000000000      9.348942976      0.521954037     -0.000000000
       H    -0.3348400000     1.3095900000     0.0000000000      1.836209417     -5.864649022     -0.000000000
