       3
Lattice="15.0 0.0 0.0 0.0 15.0 0.0 0.0 0.0 15.0" Properties=species:S:1:pos:R:3:forces:R:3 energy=        3.3683693726 pbc="T T T"
       O     0.0000000000     0.0000000000     0.0000000000    -31.755074816      5.380568895     -0.000000000
       H     0.7241400000     0.0000000000     0.0000000000     30.303845805      0.083807564     -0.000000000
       H    -0.2870100000     1.1225100000     0.0000000000      1.451229011     -5.464376459     -0.000000000
