       3
Lattice="15.0 0.0 0.0 0.0 15.0 0.0 0.0 0.0 15.0" Properties=species:S:1:pos:R:3:forces:R:3 energy=        0.8567714627 pbc="T T T"
       O     0.0000000000     0.0000000000     0.0000000000      3.219917987      4.147024801     -0.000000000
       H     1.1103400000     0.0000000000     0.0000000000     -4.748841145      0.363846545     -0.000000000
       H    -0.2750500000     1.0757300000     0.0000000000      1.528923157     -4.510871294     -0.000000000
