       3
Lattice="15.0 0.0 0.0 0.0 15.0 0.0 0.0 0.0 15.0" Properties=species:S:1:pos:R:3:forces:R:3 energy=        2.0236858648 pbc="T T T"
       O     0.0000000000     0.0000000000     0.0000000000    -11.137921720      5.475896343     -0.000000000
       H     0.8448300000     0.0000000000     0.0000000000      9.314219646      0.458068058     -0.000000000
       H    -0.3228900000     1.2628200000     0.0000000000      1.823702074     -5.933964401     -0.000000000
