       3
Lattice="15.0 0.0 0.0 0.0 15.0 0.0 0.0 0.0 15.0" Properties=species:S:1:pos:R:3:forces:R:3 energy=        2.1026853320 pbc="T T T"
       O     0.0000000000     0.0000000000     0.0000000000      1.047871380      5.096212053     -0.000000000
       H     1.0379300000     0.0000000000     0.0000000000     -2.922201379      0.552350610     -0.000000000
       H    -0.3408200000     1.3329800000     0.0000000000      1.874329999     -5.648562663     -0.000000000
