       3
Lattice="15.0 0.0 0.0 0.0 15.0 0.0 0.0 0.0 15.0" Properties=species:S:1:pos:R:3:forces:R:3 energy=        2.1334693934 pbc="T T T"
       O     0.0000000000     0.0000000000     0.0000000000      8.852169513    -12.266264964     -0.000000000
       H     1.2793100000     0.0000000000     0.0000000000     -6.209758026      0.264886846     -0.000000000
       H    -0.2033000000     0.7951100000     0.0000000000     -2.642411487     12.001378119     -0.000000000
