       3
Lattice="15.0 0.0 0.0 0.0 15.0 0.0 0.0 0.0 15.0" Properties=species:S:1:pos:R:3:forces:R:3 energy=        0.4455305726 pbc="T T T"
       O     0.0000000000     0.0000000000     0.0000000000     -2.463682143      4.432793230     -0.000000000
       H     0.9413800000     0.0000000000     0.0000000000      1.072635743      0.227839340     -0.000000000
       H    -0.2750500000     1.0757300000     0.0000000000      1.391046400     -4.660632519     -0.000000000
