       3
Lattice="15.0 0.0 0.0 0.0 15.0 0.0 0.0 0.0 15.0" Properties=species:S:1:pos:R:3:forces:R:3 energy=        1.8413376624 pbc="T T T"
       O     0.0000000000     0.0000000000     0.0000000000      4.504776542      3.491999914     -0.000000000
       H     1.3034500000     0.0000000000     0.0000000000     -6.031838477      0.424431174     -0.000000000
       H    -0.2690700000     1.0523600000     0.0000000000      1.527061986     -3.916431088     -0.000000000
