       3
Lattice="15.0 0.0 0.0 0.0 15.0 0.0 0.0 0.0 15.0" Properties=species:S:1:pos:R:3:forces:R:3 energy=        1.9989544728 pbc="T T T"
       O     0.0000000000     0.0000000000     0.0000000000     -3.106606332      5.168927975     -0.000000000
       H     0.9413800000     0.0000000000     0.0000000000      1.252572837      0.553513932     -0.000000000
       H    -0.3408200000     1.3329800000     0.0000000000      1.854033495     -5.722441907     -0.000000000
