       3
Lattice="15.0 0.0 0.0 0.0 15.0 0.0 0.0 0.0 15.0" Properties=species:S:1:pos:R:3:forces:R:3 energy=        0.2453400385 pbc="T T T"
       O     0.0000000000     0.0000000000     0.0000000000      3.291235641      1.115010937     -0.000000000
       H     1.0620700000     0.0000000000     0.0000000000     -3.838337135      0.192179922     -0.000000000
       H    -0.2451500000     0.9588100000     0.0000000000      0.547101443     -1.307190859     -0.000000000
