       3
Lattice="15.0 0.0 0.0 0.0 15.0 0.0 0.0 0.0 15.0" Properties=species:S:1:pos:R:3:forces:R:3 energy=        2.4609908191 pbc="T T T"
       O     0.0000000000     0.0000000000     0.0000000000      3.544027754      5.125543366     -0.000000000
       H     1.1827600000     0.0000000000     0.0000000000     -5.467887662      0.521854124     -0.000000000
       H    -0.3288700000     1.2862100000     0.0000000000      1.923859908     -5.647397541     -0.000000000
