       3
Lattice="15.0 0.0 0.0 0.0 15.0 0.0 0.0 0.0 15.0" Properties=species:S:1:pos:R:3:forces:R:3 energy=        2.1814437881 pbc="T T T"
       O     0.0000000000     0.0000000000     0.0000000000      1.701223866      5.079570323     -0.000000000
       H     1.0620700000     0.0000000000     0.0000000000     -3.579984289      0.551098739     -0.000000000
       H    -0.3408200000     1.3329800000     0.0000000000      1.878760423     -5.630669062     -0.000000000
