       3
Lattice="15.0 0.0 0.0 0.0 15.0 0.0 0.0 0.0 15.0" Properties=species:S:1:pos:R:3:forces:R:3 energy=        1.7510554375 pbc="T T T"
       O     0.0000000000     0.0000000000     0.0000000000      0.280023143      5.254808209     -0.000000000
       H     1.0137900000     0.0000000000     0.0000000000     -2.165734289      0.519321175     -0.000000000
       H    -0.3288700000     1.2862100000     0.0000000000      1.885711198     -5.774129384     -0.000000000
