       3
Lattice="15.0 0.0 0.0 0.0 15.0 0.0 0.0 0.0 15.0" Properties=species:S:1:pos:R:3:forces:R:3 energy=        1.4573464936 pbc="T T T"
       O     0.0000000000     0.0000000000     0.0000000000     -4.582768731      5.420209256     -0.000000000
       H     0.9172400000     0.0000000000     0.0000000000      2.748310185      0.450498573     -0.000000000
       H    -0.3169100000     1.2394400000     0.0000000000      1.834458546     -5.870707829     -0.000000000
