       3
Lattice="15.0 0.0 0.0 0.0 15.0 0.0 0.0 0.0 15.0" Properties=species:S:1:pos:R:3:forces:R:3 energy=        2.1840920518 pbc="T T T"
       O     0.0000000000     0.0000000000     0.0000000000      4.797095529      1.498652363     -0.000000000
       H     1.4000000000     0.0000000000     0.0000000000     -5.871476332      0.411166589     -0.000000000
       H    -0.2511300000     0.9821900000     0.0000000000      1.074380803     -1.909818952     -0.000000000
