       3
Lattice="15.0 0.0 0.0 0.0 15.0 0.0 0.0 0.0 15.0" Properties=species:S:1:pos:R:3:forces:R:3 energy=        2.4462050064 pbc="T T T"
       O     0.0000000000     0.0000000000     0.0000000000      3.846718627      5.123227778     -0.000000000
       H     1.2310300000     0.0000000000     0.0000000000     -5.782399290      0.501025865     -0.000000000
       H    -0.3169100000     1.2394400000     0.0000000000      1.935680663     -5.624253642     -0.000000000
