       3
Lattice="15.0 0.0 0.0 0.0 15.0 0.0 0.0 0.0 15.0" Properties=species:S:1:pos:R:3:forces:R:3 energy=        2.0028184325 pbc="T T T"
       O     0.0000000000     0.0000000000     0.0000000000    -23.898567324     -0.241285290     -0.000000000
       H     0.7482800000     0.0000000000     0.0000000000     24.505594576     -0.506758039     -0.000000000
       H    -0.2331900000     0.9120400000     0.0000000000     -0.607027253      0.748043329     -0.000000000
