       3
Lattice="15.0 0.0 0.0 0.0 15.0 0.0 0.0 0.0 15.0" Properties=species:S:1:pos:R:3:forces:R:3 energy=        0.1349555355 pbc="T T T"
       O     0.0000000000     0.0000000000     0.0000000000      1.568381022     -4.133582039     -0.000000000
       H     0.9655200000     0.0000000000     0.0000000000     -0.377996206     -0.097305862     -0.000000000
       H    -0.2212400000     0.8652600000     0.0000000000     -1.190384816      4.230887901     -0.000000000
