       3
Lattice="15.0 0.0 0.0 0.0 15.0 0.0 0.0 0.0 15.0" Properties=species:S:1:pos:R:3:forces:R:3 energy=        4.0444095879 pbc="T T T"
       O     0.0000000000     0.0000000000     0.0000000000    -38.276370731      5.229532453     -0.000000000
       H     0.7000000000     0.0000000000     0.0000000000     36.951631570     -0.013871365     -0.000000000
       H    -0.2810300000     1.0991200000     0.0000000000      1.324739161     -5.215661140     -0.000000000
