       3
Lattice="15.0 0.0 0.0 0.0 15.0 0.0 0.0 0.0 15.0" Properties=species:S:1:pos:R:3:forces:R:3 energy=        2.5867794401 pbc="T T T"
       O     0.0000000000     0.0000000000     0.0000000000      3.977635199      5.061547549     -0.000000000
       H     1.2793100000     0.0000000000     0.0000000000     -5.912922637      0.490252577     -0.000000000
       H    -0.3109300000     1.2160500000     0.0000000000      1.935287438     -5.551800127     -0.000000000
