       3
Lattice="15.0 0.0 0.0 0.0 15.0 0.0 0.0 0.0 15.0" Properties=species:S:1:pos:R:3:forces:R:3 energy=        1.9187457615 pbc="T T T"
       O     0.0000000000     0.0000000000     0.0000000000      4.271962424      4.271262878     -0.000000000
       H     1.2793100000     0.0000000000     0.0000000000     -5.992189940      0.442457084     -0.000000000
       H    -0.2810300000     1.0991200000     0.0000000000      1.720227515     -4.713719911     -0.000000000
