       3
Lattice="15.0 0.0 0.0 0.0 15.0 0.0 0.0 0.0 15.0" Properties=species:S:1:pos:R:3:forces:R:3 energy=        0.3244259210 pbc="T T T"
       O     0.0000000000     0.0000000000     0.0000000000      4.122868350      0.014160152     -0.000000000
       H     1.0862100000     0.0000000000     0.0000000000     -4.398222161      0.191784640     -0.000000000
       H    -0.2391700000     0.9354300000     0.0000000000      0.275353811     -0.205944792     -0.000000000
