       3
Lattice="15.0 0.0 0.0 0.0 15.0 0.0 0.0 0.0 15.0" Properties=species:S:1:pos:R:3:forces:R:3 energy=        3.8896710346 pbc="T T T"
       O     0.0000000000     0.0000000000     0.0000000000     11.850659620    -24.414792529     -0.000000000
       H     1.3517200000     0.0000000000     0.0000000000     -6.207637893      0.282718483     -0.000000000
       H    -0.1853600000     0.7249600000     0.0000000000     -5.643021727     24.132074046     -0.000000000
