       3
Lattice="15.0 0.0 0.0 0.0 15.0 0.0 0.0 0.0 15.0" Properties=species:S:1:pos:R:3:forces:R:3 energy=        0.1221638494 pbc="T T T"
       O     0.0000000000     0.0000000000     0.0000000000     -3.208043650      2.317650716     -0.000000000
       H     0.9172400000     0.0000000000     0.0000000000      2.578539803      0.031035338     -0.000000000
       H    -0.2511300000     0.9821900000     0.0000000000      0.629503847     -2.348686055     -0.000000000
