       3
Lattice="15.0 0.0 0.0 0.0 15.0 0.0 0.0 0.0 15.0" Properties=species:S:1:pos:R:3:forces:R:3 energy=        0.8993542505 pbc="T T T"
       O     0.0000000000     0.0000000000     0.0000000000     -6.327226951     -8.146359607     -0.000000000
       H     0.8448300000     0.0000000000     0.0000000000      9.044893583     -0.492870733     -0.000000000
       H    -0.2092800000     0.8185000000     0.0000000000     -2.717666632      8.639230340     -0.000000000
