       3
Lattice="15.0 0.0 0.0 0.0 15.0 0.0 0.0 0.0 15.0" Properties=species:S:1:pos:R:3:forces:R:3 energy=        1.5205862037 pbc="T T T"
       O     0.0000000000     0.0000000000     0.0000000000      4.848265648      2.381931103     -0.000000000
       H     1.2793100000     0.0000000000     0.0000000000     -6.058080351      0.393217453     -0.000000000
       H    -0.2571100000     1.0055800000     0.0000000000      1.209814703     -2.775148555     -0.000000000
