       3
Lattice="15.0 0.0 0.0 0.0 15.0 0.0 0.0 0.0 15.0" Properties=species:S:1:pos:R:3:forces:R:3 energy=        2.8915083639 pbc="T T T"
       O     0.0000000000     0.0000000000     0.0000000000    -31.103643768      4.095820743     -0.000000000
       H     0.7241400000     0.0000000000     0.0000000000     30.238511574     -0.189798154     -0.000000000
       H    -0.2630900000     1.0289700000     0.0000000000      0.865132194     -3.906022641     -0.000000000
