       3
Lattice="15.0 0.0 0.0 0.0 15.0 0.0 0.0 0.0 15.0" Properties=species:S:1:pos:R:3:forces:R:3 energy=        0.0096233692 pbc="T T T"
       O     0.0000000000     0.0000000000     0.0000000000     -1.058730234      0.363021014     -0.000000000
       H     0.9413800000     0.0000000000     0.0000000000      0.987294567     -0.016941829     -0.000000000
       H    -0.2391700000     0.9354300000     0.0000000000      0.071435667     -0.346079185     -0.000000000
