       3
Lattice="15.0 0.0 0.0 0.0 15.0 0.0 0.0 0.0 15.0" Properties=species:S:1:pos:R:3:forces:R:3 energy=        2.4498524042 pbc="T T T"
       O     0.0000000000     0.0000000000     0.0000000000     11.085972659    -23.822941014     -0.000000000
       H     1.1103400000     0.0000000000     0.0000000000     -4.980254577     -0.008166290     -0.000000000
       H    -0.1853600000     0.7249600000     0.0000000000     -6.105718082     23.831107304     -0.000000000
