       3
Lattice="15.0 0.0 0.0 0.0 15.0 0.0 0.0 0.0 15.0" Properties=species:S:1:pos:R:3:forces:R:3 energy=        0.6375527275 pbc="T T T"
       O     0.0000000000     0.0000000000     0.0000000000      2.935911124      3.781478859     -0.000000000
       H     1.0862100000     0.0000000000     0.0000000000     -4.320243188      0.324164120     -0.000000000
       H    -0.2690700000     1.0523600000     0.0000000000      1.384332064     -4.105642979     -0.000000000
