       3
Lattice="15.0 0.0 0.0 0.0 15.0 0.0 0.0 0.0 15.0" Properties=species:S:1:pos:R:3:forces:R:3 energy=        1.6109618888 pbc="T T T"
       O     0.0000000000     0.0000000000     0.0000000000    -20.435291736      3.401016861     -0.000000000
       H     0.7724100000     0.0000000000     0.0000000000     19.737092556     -0.167398692     -0.000000000
       H    -0.2571100000     1.0055800000     0.0000000000      0.698199180     -3.233618169     -0.000000000
