       3
Lattice="15.0 0.0 0.0 0.0 15.0 0.0 0.0 0.0 15.0" Properties=species:S:1:pos:R:3:forces:R:3 energy=        1.9585506422 pbc="T T T"
       O     0.0000000000     0.0000000000     0.0000000000      1.052095653      5.173898588     -0.000000000
       H     1.0379300000     0.0000000000     0.0000000000     -2.938553140      0.537641168     -0.000000000
       H    -0.3348400000     1.3095900000     0.0000000000      1.886457487     -5.711539756     -0.000000000
