       3
Lattice="15.0 0.0 0.0 0.0 15.0 0.0 0.0 0.0 15.0" Properties=species:S:1:pos:R:3:forces:R:3 energy=        0.7147002640 pbc="T T T"
       O     0.0000000000     0.0000000000     0.0000000000      2.385732738    -11.342798938     -0.000000000
       H     0.9413800000     0.0000000000     0.0000000000      0.913313044     -0.277032228     -0.000000000
       H    -0.2033000000     0.7951100000     0.0000000000     -3.299045781     11.619831166     -0.000000000
