       3
Lattice="15.0 0.0 0.0 0.0 15.0 0.0 0.0 0.0 15.0" Properties=species:S:1:pos:R:3:forces:R:3 energy=        2.1731200700 pbc="T T T"
       O     0.0000000000     0.0000000000     0.0000000000      3.573803405      5.157919792     -0.000000000
       H     1.1827600000     0.0000000000     0.0000000000     -5.499410995      0.501496171     -0.000000000
       H    -0.3169100000     1.2394400000     0.0000000000      1.925607590     -5.659415911     -0.000000000
