       3
Lattice="15.0 0.0 0.0 0.0 15.0 0.0 0.0 0.0 15.0" Properties=species:S:1:pos:R:3:forces:R:3 energy=        1.2211986055 pbc="T T T"
       O     0.0000000000     0.0000000000     0.0000000000      3.715578163      4.405636506     -0.000000000
       H     1.1586200000     0.0000000000     0.0000000000     -5.376764894      0.408243347     -0.000000000
       H    -0.2810300000     1.0991200000     0.0000000000      1.661186731     -4.813879853     -0.000000000
