       3
Lattice="15.0 0.0 0.0 0.0 15.0 0.0 0.0 0.0 15.0" Properties=species:S:1:pos:R:3:forces:R:3 energy=        3.7393540540 pbc="T T T"
       O     0.0000000000     0.0000000000     0.0000000000    -26.566897753      5.523333116     -0.000000000
       H     0.7482800000     0.0000000000     0.0000000000     24.761338163      0.469637719     -0.000000000
       H    -0.3288700000     1.2862100000     0.0000000000      1.805559590     -5.992970835     -0.000000000
