       3
Lattice="15.0 0.0 0.0 0.0 15.0 0.0 0.0 0.0 15.0" Properties=species:S:1:pos:R:3:forces:R:3 energy=        1.9069975368 pbc="T T T"
       O     0.0000000000     0.0000000000     0.0000000000     -3.440063503    -18.176908009     -0.000000000
       H     0.8448300000     0.0000000000     0.0000000000      9.008503200     -0.665061295     -0.000000000
       H    -0.1913400000     0.7483400000     0.0000000000     -5.568439697     18.841969304     -0.000000000
