       3
Lattice="15.0 0.0 0.0 0.0 15.0 0.0 0.0 0.0 15.0" Properties=species:S:1:pos:R:3:forces:R:3 energy=        1.4069714670 pbc="T T T"
       O     0.0000000000     0.0000000000     0.0000000000      2.366178512      5.170397207     -0.000000000
       H     1.0862100000     0.0000000000     0.0000000000     -4.221924414      0.457575897     -0.000000000
       H    -0.3049500000     1.1926600000     0.0000000000      1.855745953     -5.627973105     -0.000000000
