       3
Lattice="15.0 0.0 0.0 0.0 15.0 0.0 0.0 0.0 15.0" Properties=species:S:1:pos:R:3:forces:R:3 energy=        0.6832770371 pbc="T T T"
       O     0.0000000000     0.0000000000     0.0000000000    -10.139895209      3.784328003     -0.000000000
       H     0.8448300000     0.0000000000     0.0000000000      9.155051933      0.016025796     -0.000000000
       H    -0.2630900000     1.0289700000     0.0000000000      0.984843225     -3.800353799     -0.000000000
