       3
Lattice="15.0 0.0 0.0 0.0 15.0 0.0 0.0 0.0 15.0" Properties=species:S:1:pos:R:3:forces:R:3 energy=        0.0244221183 pbc="T T T"
       O     0.0000000000     0.0000000000     0.0000000000      1.317536366      0.238206341     -0.000000000
       H     0.9896600000     0.0000000000     0.0000000000     -1.459595179      0.061777622     -0.000000000
       H    -0.2391700000     0.9354300000     0.0000000000      0.142058762     -0.299983963     -0.000000000
