       3
Lattice="15.0 0.0 0.0 0.0 15.0 0.0 0.0 0.0 15.0" Properties=species:S:1:pos:R:3:forces:R:3 energy=        1.1685498254 pbc="T T T"
       O     0.0000000000     0.0000000000     0.0000000000      0.035863975    -14.486282672     -0.000000000
       H     0.8931000000     0.0000000000     0.0000000000      4.311919032     -0.455638930     -0.000000000
       H    -0.1973200000     0.7717200000     0.0000000000     -4.347782955     14.941921602     -0.000000000
