       3
Lattice="15.0 0.0 0.0 0.0 15.0 0.0 0.0 0.0 15.0" Properties=species:S:1:pos:R:3:forces:R:3 energy=        4.1861418525 pbc="T T T"
       O     0.0000000000     0.0000000000     0.0000000000    -26.620189445      5.213830205     -0.000000000
       H     0.7482800000     0.0000000000     0.0000000000     24.816758010      0.582572965     -0.000000000
       H    -0.3468000000     1.3563700000     0.0000000000      1.803431435     -5.796403170     -0.000000000
