       3
Lattice="15.0 0.0 0.0 0.0 15.0 0.0 0.0 0.0 15.0" Properties=species:S:1:pos:R:3:forces:R:3 energy=        1.9989470849 pbc="T T T"
       O     0.0000000000     0.0000000000     0.0000000000      5.776709179     -1.729138758     -0.000000000
       H     1.3758600000     0.0000000000     0.0000000000     -6.002891287      0.378798031     -0.000000000
       H    -0.2331900000     0.9120400000     0.0000000000      0.226182057      1.350340727     -0.000000000
