       3
Lattice="15.0 0.0 0.0 0.0 15.0 0.0 0.0 0.0 15.0" Properties=species:S:1:pos:R:3:forces:R:3 energy=        2.5950923607 pbc="T T T"
       O     0.0000000000     0.0000000000     0.0000000000      4.033218362      4.857068904     -0.000000000
       H     1.3275900000     0.0000000000     0.0000000000     -5.932430532      0.472526612     -0.000000000
       H    -0.2989700000     1.1692800000     0.0000000000      1.899212170     -5.329595516     -0.000000000
