       3
Lattice="15.0 0.0 0.0 0.0 15.0 0.0 0.0 0.0 15.0" Properties=species:S:1:pos:R:3:forces:R:3 energy=        2.9948400212 pbc="T T T"
       O     0.0000000000     0.0000000000     0.0000000000    -31.304435346      4.544064303     -0.000000000
       H     0.7241400000     0.0000000000     0.0000000000     30.254006900     -0.118043978     -0.000000000
       H    -0.2690700000     1.0523600000     0.0000000000      1.050428498     -4.426020324     -0.000000000
