       3
Lattice="15.0 0.0 0.0 0.0 15.0 0.0 0.0 0.0 15.0" Properties=species:S:1:pos:R:3:forces:R:3 energy=        1.0472672276 pbc="T T T"
       O     0.0000000000     0.0000000000     0.0000000000      3.323200741    -14.678166094     -0.000000000
       H     0.9413800000     0.0000000000     0.0000000000      0.901489101     -0.319646895     -0.000000000
       H    -0.1973200000     0.7717200000     0.0000000000     -4.224689842     14.997812989     -0.000000000
