       3
Lattice="15.0 0.0 0.0 0.0 15.0 0.0 0.0 0.0 15.0" Properties=species:S:1:pos:R:3:forces:R:3 energy=        4.1501013132 pbc="T T T"
       O     0.0000000000     0.0000000000     0.0000000000     -1.788932207    -34.401928605     -0.000000000
       H     0.8206900000     0.0000000000     0.0000000000     11.945490691     -0.928165851     -0.000000000
       H    -0.1734000000     0.6781800000     0.0000000000    -10.156558485     35.330094456     -0.000000000
