       3
Lattice="15.0 0.0 0.0 0.0 15.0 0.0 0.0 0.0 15.0" Properties=species:S:1:pos:R:3:forces:R:3 energy=        4.6248915246 pbc="T T T"
       O     0.0000000000     0.0000000000     0.0000000000    -22.850937884    -22.079611766     -0.000000000
       H     0.7241400000     0.0000000000     0.0000000000     30.043271010     -1.233069828     -0.000000000
       H    -0.1853600000     0.7249600000     0.0000000000     -7.192333177     23.312681594     -0.000000000
