       3
Lattice="15.0 0.0 0.0 0.0 15.0 0.0 0.0 0.0 15.0" Properties=species:S:1:pos:R:3:forces:R:3 energy=        1.5921025942 pbc="T T T"
       O     0.0000000000     0.0000000000     0.0000000000    -18.108301226     -3.455888805     -0.000000000
       H     0.7724100000     0.0000000000     0.0000000000     19.661936039     -0.583421995     -0.000000000
       H    -0.2212400000     0.8652600000     0.0000000000     -1.553634813      4.039310748     -0.000000000
