       3
Lattice="15.0 0.0 0.0 0.0 15.0 0.0 0.0 0.0 15.0" Properties=species:S:1:pos:R:3:forces:R:3 energy=        0.1825864789 pbc="T T T"
       O     0.0000000000     0.0000000000     0.0000000000     -3.553879198     -2.181150888     -0.000000000
       H     0.8931000000     0.0000000000     0.0000000000      4.370003005     -0.204983713     -0.000000000
       H    -0.2272200000     0.8886500000     0.0000000000     -0.816123859      2.386134601     -0.000000000
