       3
Lattice="15.0 0.0 0.0 0.0 15.0 0.0 0.0 0.0 15.0" Properties=species:S:1:pos:R:3:forces:R:3 energy=        1.3538168680 pbc="T T T"
       O     0.0000000000     0.0000000000     0.0000000000      3.267451434      4.884473946     -0.000000000
       H     1.1344800000     0.0000000000     0.0000000000     -5.058632431      0.435324223     -0.000000000
       H    -0.2929900000     1.1459000000     0.0000000000      1.791180997     -5.319798169     -0.000000000
