       3
Lattice="15.0 0.0 0.0 0.0 15.0 0.0 0.0 0.0 15.0" Properties=species:S:1:pos:R:3:forces:R:3 energy=        2.2747106449 pbc="T T T"
       O     0.0000000000     0.0000000000     0.0000000000     -8.659549418      5.228357202     -0.000000000
       H     0.8689700000     0.0000000000     0.0000000000      6.822263068      0.551448821     -0.000000000
       H    -0.3408200000     1.3329800000     0.0000000000      1.837286350     -5.779806022     -0.000000000
