       3
Lattice="15.0 0.0 0.0 0.0 15.0 0.0 0.0 0.0 15.0" Properties=species:S:1:pos:R:3:forces:R:3 energy=        2.4749619719 pbc="T T T"
       O     0.0000000000     0.0000000000     0.0000000000      3.321416755      5.089934136     -0.000000000
       H     1.1586200000     0.0000000000     0.0000000000     -5.230655358      0.532994719     -0.000000000
       H    -0.3348400000     1.3095900000     0.0000000000      1.909238654     -5.622928855     -0.000000000
