       3
Lattice="15.0 0.0 0.0 0.0 15.0 0.0 0.0 0.0 15.0" Properties=species:S:1:pos:R:3:forces:R:3 energy=        1.5452266607 pbc="T T T"
       O     0.0000000000     0.0000000000     0.0000000000      6.867089964     -4.864026158     -0.000000000
       H     1.2793100000     0.0000000000     0.0000000000     -6.158442536      0.308522086     -0.000000000
       H    -0.2212400000     0.8652600000     0.0000000000     -0.708647479      4.555504020     -0.000000000
