       3
Lattice="15.0 0.0 0.0 0.0 15.0 0.0 0.0 0.0 15.0" Properties=species:S:1:pos:R:3:forces:R:3 energy=        1.6137701093 pbc="T T T"
       O     0.0000000000     0.0000000000     0.0000000000    -17.078201062      5.017510291     -0.000000000
       H     0.7965500000     0.0000000000     0.0000000000     15.686081380      0.111393714     -0.000000000
       H    -0.2810300000     1.0991200000     0.0000000000      1.392119630     -5.128903953     -0.000000000
