       3
Lattice="15.0 0.0 0.0 0.0 15.0 0.0 0.0 0.0 15.0" Properties=species:S:1:pos:R:3:forces:R:3 energy=        2.9002372568 pbc="T T T"
       O     0.0000000000     0.0000000000     0.0000000000    -21.675271098      5.602168010     -0.000000000
       H     0.7724100000     0.0000000000     0.0000000000     19.898882179      0.391385849     -0.000000000
       H    -0.3169100000     1.2394400000     0.0000000000      1.776388920     -5.993553859     -0.000000000
