       3
Lattice="15.0 0.0 0.0 0.0 15.0 0.0 0.0 0.0 15.0" Properties=species:S:1:pos:R:3:forces:R:3 energy=        2.9086752654 pbc="T T T"
       O     0.0000000000     0.0000000000     0.0000000000      1.819186083    -28.297888426     -0.000000000
       H     0.8689700000     0.0000000000     0.0000000000      6.438777040     -0.684374454     -0.000000000
       H    -0.1793800000     0.7015700000     0.0000000000     -8.257963123     28.982262880     -0.000000000
