       3
Lattice="15.0 0.0 0.0 0.0 15.0 0.0 0.0 0.0 15.0" Properties=species:S:1:pos:R:3:forces:R:3 energy=        2.6815179703 pbc="T T T"
       O     0.0000000000     0.0000000000     0.0000000000    -30.294161483      2.033773025     -0.000000000
       H     0.7241400000     0.0000000000     0.0000000000     30.195227855     -0.416511967     -0.000000000
       H    -0.2451500000     0.9588100000     0.0000000000      0.098933628     -1.617261007     -0.000000000
