       3
Lattice="15.0 0.0 0.0 0.0 15.0 0.0 0.0 0.0 15.0" Properties=species:S:1:pos:R:3:forces:R:3 energy=        1.1856398820 pbc="T T T"
       O     0.0000000000     0.0000000000     0.0000000000      7.279792634    -15.016427219     -0.000000000
       H     1.0379300000     0.0000000000     0.0000000000     -3.290597390     -0.093503610     -0.000000000
       H    -0.1973200000     0.7717200000     0.0000000000     -3.989195296     15.109930829     -0.000000000
