       3
Lattice="15.0 0.0 0.0 0.0 15.0 0.0 0.0 0.0 15.0" Properties=species:S:1:pos:R:3:forces:R:3 energy=        1.1629661878 pbc="T T T"
       O     0.0000000000     0.0000000000     0.0000000000      6.324216856     -3.015275306     -0.000000000
       H     1.2310300000     0.0000000000     0.0000000000     -6.027729441      0.289152980     -0.000000000
       H    -0.2272200000     0.8886500000     0.0000000000     -0.296487415      2.726122377     -0.000000000
