       3
Lattice="15.0 0.0 0.0 0.0 15.0 0.0 0.0 0.0 15.0" Properties=species:S:1:pos:R:3:forces:R:3 energy=        2.1228966679 pbc="T T T"
       O     0.0000000000     0.0000000000     0.0000000000      2.414664552    -22.999365426     -0.000000000
       H     0.8931000000     0.0000000000     0.0000000000      4.287434868     -0.552261238     -0.000000000
       H    -0.1853600000     0.7249600000     0.0000000000     -6.702099471     23.551626664     -0.000000000
