       3
Lattice="15.0 0.0 0.0 0.0 15.0 0.0 0.0 0.0 15.0" Properties=species:S:1:pos:R:3:forces:R:3 energy=        1.1055374937 pbc="T T T"
       O     0.0000000000     0.0000000000     0.0000000000      5.552595883     -0.258335980     -0.000000000
       H     1.2310300000     0.0000000000     0.0000000000     -5.994770146      0.323363683     -0.000000000
       H    -0.2391700000     0.9354300000     0.0000000000      0.442174262     -0.065027703     -0.000000000
