       3
Lattice="15.0 0.0 0.0 0.0 15.0 0.0 0.0 0.0 15.0" Properties=species:S:1:pos:R:3:forces:R:3 energy=        2.0296264505 pbc="T T T"
       O     0.0000000000     0.0000000000     0.0000000000      3.601491577      5.132601047     -0.000000000
       H     1.1827600000     0.0000000000     0.0000000000     -5.515467131      0.489800680     -0.000000000
       H    -0.3109300000     1.2160500000     0.0000000000      1.913975605     -5.622401727     -0.000000000
