       3
Lattice="15.0 0.0 0.0 0.0 15.0 0.0 0.0 0.0 15.0" Properties=species:S:1:pos:R:3:forces:R:3 energy=        1.7097841161 pbc="T T T"
       O     0.0000000000     0.0000000000     0.0000000000     -0.654526401      5.276515889     -0.000000000
       H     0.9896600000     0.0000000000     0.0000000000     -1.224243587      0.516639719     -0.000000000
       H    -0.3288700000     1.2862100000     0.0000000000      1.878769987     -5.793155608     -0.000000000
