3
Lattice="15.0 0.0 0.0 0.0 15.0 0.0 0.0 0.0 15.0" Properties=species:S:1:pos:R:3:forces:R:3 energy=0.5983004611 pbc="T T T"
O        0.00000000       0.00000000       0.00000000       3.18531792       3.37219036       0.00000000
H        1.09429615       0.00000000       0.00000000      -4.49743172       0.32801337       0.00000000
H       -0.26933708       1.03310086       0.00000000       1.31211375      -3.70020373       0.00000000
