3
Lattice="15.0 0.0 0.0 0.0 15.0 0.0 0.0 0.0 15.0" Properties=species:S:1:pos:R:3:forces:R:3 energy=1.7837052122 pbc="T T T"
O        0.00000000       0.00000000       0.00000000     -20.87572983      -1.97938913       0.00000000
H        0.76011170       0.00000000       0.00000000      22.04679429      -0.61969082       0.00000000
H       -0.21803296       0.88613341       0.00000000      -1.17106446       2.59908000       0.00000000
