3
Lattice="15.0 0.0 0.0 0.0 15.0 0.0 0.0 0.0 15.0" Properties=species:S:1:pos:R:3:forces:R:3 energy=0.0634722776 pbc="T T T"
O        0.00000000       0.00000000       0.00000000       0.48469004       1.14881109       0.00000000
H        0.95949400       0.00000000       0.00000000       0.26798703      -0.78917349       0.00000000
H       -0.08124867       0.96719719       0.00000000      -0.75267708      -0.35963759       0.00000000
