3
Lattice="15.0 0.0 0.0 0.0 15.0 0.0 0.0 0.0 15.0" Properties=species:S:1:pos:R:3:forces:R:3 energy=0.218644028 pbc="T T T"
O        0.00000000       0.00000000       0.00000000      -1.11076635      -3.75869743       0.00000000
H        0.92507388       0.00000000       0.00000000       1.54983714       0.99407174       0.00000000
H       -0.45758171       0.78678062       0.00000000      -0.43907073       2.76462569       0.00000000
