3
Lattice="15.0 0.0 0.0 0.0 15.0 0.0 0.0 0.0 15.0" Properties=species:S:1:pos:R:3:forces:R:3 energy=0.0264361663 pbc="T T T"
O        0.00000000       0.00000000       0.00000000       0.45434222       0.24892008       0.00000000
H        0.96043641       0.00000000       0.00000000       0.10390830      -0.51256992       0.00000000
H       -0.13632404       0.94622861       0.00000000      -0.55825052       0.26364984       0.00000000
