3
Lattice="15.0 0.0 0.0 0.0 15.0 0.0 0.0 0.0 15.0" Properties=species:S:1:pos:R:3:forces:R:3 energy=1.4089963234 pbc="T T T"
O        0.00000000       0.00000000       0.00000000       1.75289767       5.87445994       0.00000000
H        1.02503504       0.00000000       0.00000000      -2.48615108       0.00542647       0.00000000
H       -0.15648125       1.26239336       0.00000000       0.73325341      -5.87988641       0.00000000
