3
Lattice="15.0 0.0 0.0 0.0 15.0 0.0 0.0 0.0 15.0" Properties=species:S:1:pos:R:3:forces:R:3 energy=0.0064425487 pbc="T T T"
O        0.00000000       0.00000000       0.00000000       0.09269968       0.09195005       0.00000000
H        0.95693220       0.00000000       0.00000000       0.18936909      -0.24598403       0.00000000
H       -0.18903066       0.93774008       0.00000000      -0.28206876       0.15403399       0.00000000
