3
Lattice="15.0 0.0 0.0 0.0 15.0 0.0 0.0 0.0 15.0" Properties=species:S:1:pos:R:3:forces:R:3 energy=0.0761654314 pbc="T T T"
O        0.00000000       0.00000000       0.00000000      -1.82672466       2.03780467       0.00000000
H        0.92848433       0.00000000       0.00000000       1.94852749      -0.41125483       0.00000000
H       -0.16116038       0.98280366       0.00000000      -0.12180283      -1.62654984       0.00000000
