3
Lattice="15.0 0.0 0.0 0.0 15.0 0.0 0.0 0.0 15.0" Properties=species:S:1:pos:R:3:forces:R:3 energy=0.006710619 pbc="T T T"
O        0.00000000       0.00000000       0.00000000      -0.40887486       0.52091619       0.00000000
H        0.95054774       0.00000000       0.00000000       0.52250662      -0.18449818       0.00000000
H       -0.20224698       0.94458448       0.00000000      -0.11363176      -0.33641800       0.00000000
