3
Lattice="15.0 0.0 0.0 0.0 15.0 0.0 0.0 0.0 15.0" Properties=species:S:1:pos:R:3:forces:R:3 energy=0.0159930132 pbc="T T T"
O        0.00000000       0.00000000       0.00000000      -1.08449409       0.84016811       0.00000000
H        0.94112739       0.00000000       0.00000000       1.04978315      -0.12830726       0.00000000
H       -0.21591958       0.94930270       0.00000000       0.03471094      -0.71186085       0.00000000
