3
Lattice="15.0 0.0 0.0 0.0 15.0 0.0 0.0 0.0 15.0" Properties=species:S:1:pos:R:3:forces:R:3 energy=0.0313082534 pbc="T T T"
O        0.00000000       0.00000000       0.00000000      -0.09849140      -0.53966380       0.00000000
H        0.96401050       0.00000000       0.00000000      -0.44734306       0.51508903       0.00000000
H       -0.34620673       0.89412334       0.00000000       0.54583445       0.02457472       0.00000000
