3
Lattice="15.0 0.0 0.0 0.0 15.0 0.0 0.0 0.0 15.0" Properties=species:S:1:pos:R:3:forces:R:3 energy=0.0697200363 pbc="T T T"
O        0.00000000       0.00000000       0.00000000      -0.85099631      -2.38203256       0.00000000
H        0.93521506       0.00000000       0.00000000       1.14604298       0.42402705       0.00000000
H       -0.33232087       0.86132014       0.00000000      -0.29504667       1.95800556       0.00000000
