3
Lattice="15.0 0.0 0.0 0.0 15.0 0.0 0.0 0.0 15.0" Properties=species:S:1:pos:R:3:forces:R:3 energy=0.0470369134 pbc="T T T"
O        0.00000000       0.00000000       0.00000000       1.79298236      -1.18275702       0.00000000
H        0.99497769       0.00000000       0.00000000      -1.77581654       0.24681872       0.00000000
H       -0.27888813       0.89963473       0.00000000      -0.01716577       0.93593825       0.00000000
