3
Lattice="15.0 0.0 0.0 0.0 15.0 0.0 0.0 0.0 15.0" Properties=species:S:1:pos:R:3:forces:R:3 energy=0.6684746146 pbc="T T T"
O        0.00000000       0.00000000       0.00000000      -4.12693085      -5.78028286       0.00000000
H        0.87854936       0.00000000       0.00000000       6.06493209      -1.56794450       0.00000000
H       -0.04021718       0.86328201       0.00000000      -1.93800124       7.34822736       0.00000000
