3
Lattice="15.0 0.0 0.0 0.0 15.0 0.0 0.0 0.0 15.0" Properties=species:S:1:pos:R:3:forces:R:3 energy=0.1178680478 pbc="T T T"
O        0.00000000       0.00000000       0.00000000       2.69840464       0.10103679       0.00000000
H        1.00727342       0.00000000       0.00000000      -1.84749600      -0.75808529       0.00000000
H       -0.06721986       0.94929798       0.00000000      -0.85090864       0.65704850       0.00000000
