3
Lattice="15.0 0.0 0.0 0.0 15.0 0.0 0.0 0.0 15.0" Properties=species:S:1:pos:R:3:forces:R:3 energy=0.0435798157 pbc="T T T"
O        0.00000000       0.00000000       0.00000000      -0.82943765      -1.84094210       0.00000000
H        0.93541762       0.00000000       0.00000000       1.26345807       0.08422419       0.00000000
H       -0.26435885       0.88848150       0.00000000      -0.43402047       1.75671791       0.00000000
