3
Lattice="15.0 0.0 0.0 0.0 15.0 0.0 0.0 0.0 15.0" Properties=species:S:1:pos:R:3:forces:R:3 energy=0.2099315218 pbc="T T T"
O        0.00000000       0.00000000       0.00000000       2.42649518      -4.01368707       0.00000000
H        0.98628051       0.00000000       0.00000000      -1.10089126      -0.67583726       0.00000000
H       -0.10780882       0.88422879       0.00000000      -1.32560393       4.68952433       0.00000000
