3
Lattice="15.0 0.0 0.0 0.0 15.0 0.0 0.0 0.0 15.0" Properties=species:S:1:pos:R:3:forces:R:3 energy=0.5337347075 pbc="T T T"
O        0.00000000       0.00000000       0.00000000     -10.10448951       0.22049241       0.00000000
H        0.84597928       0.00000000       0.00000000       8.66367208       0.89477626       0.00000000
H       -0.45061467       0.87416945       0.00000000       1.44081743      -1.11526867       0.00000000
