3
Lattice="15.0 0.0 0.0 0.0 15.0 0.0 0.0 0.0 15.0" Properties=species:S:1:pos:R:3:forces:R:3 energy=0.0107616705 pbc="T T T"
O        0.00000000       0.00000000       0.00000000      -0.84997749       0.34571594       0.00000000
H        0.94232534       0.00000000       0.00000000       0.98179878      -0.17029499       0.00000000
H       -0.20874997       0.93956116       0.00000000      -0.13182129      -0.17542095       0.00000000
