3
Lattice="15.0 0.0 0.0 0.0 15.0 0.0 0.0 0.0 15.0" Properties=species:S:1:pos:R:3:forces:R:3 energy=0.9609011076 pbc="T T T"
O        0.00000000       0.00000000       0.00000000       2.46679637       6.00500401       0.00000000
H        0.97794201       0.00000000       0.00000000      -0.19038514      -1.71247306       0.00000000
H        0.21300605       1.13733161       0.00000000      -2.27641118      -4.29253095       0.00000000
