3
Lattice="15.0 0.0 0.0 0.0 15.0 0.0 0.0 0.0 15.0" Properties=species:S:1:pos:R:3:forces:R:3 energy=1.2952856503 pbc="T T T"
O        0.00000000       0.00000000       0.00000000       4.29718455     -13.06756013       0.00000000
H        1.05302046       0.00000000       0.00000000      -3.00929913      -1.43052540       0.00000000
H        0.03223124       0.80681190       0.00000000      -1.28788541      14.49808553       0.00000000
