3
Lattice="15.0 0.0 0.0 0.0 15.0 0.0 0.0 0.0 15.0" Properties=species:S:1:pos:R:3:forces:R:3 energy=1.5091610489 pbc="T T T"
O        0.00000000       0.00000000       0.00000000     -14.09598095      -6.08908530       0.00000000
H        0.78832828       0.00000000       0.00000000      16.27612325       1.18685603       0.00000000
H       -0.50749043       0.71197292       0.00000000      -2.18014235       4.90222927       0.00000000
