3
Lattice="15.0 0.0 0.0 0.0 15.0 0.0 0.0 0.0 15.0" Properties=species:S:1:pos:R:3:forces:R:3 energy=0.0029269846 pbc="T T T"
O        0.00000000       0.00000000       0.00000000       0.29283912       0.22494746       0.00000000
H        0.96300992       0.00000000       0.00000000      -0.15557028      -0.14980951       0.00000000
H       -0.20510372       0.93871986       0.00000000      -0.13726885      -0.07513795       0.00000000
