3
Lattice="15.0 0.0 0.0 0.0 15.0 0.0 0.0 0.0 15.0" Properties=species:S:1:pos:R:3:forces:R:3 energy=0.0146252166 pbc="T T T"
O        0.00000000       0.00000000       0.00000000       0.65116262       0.82554089       0.00000000
H        0.97095314       0.00000000       0.00000000      -0.49757375      -0.25598810       0.00000000
H       -0.17885834       0.95503774       0.00000000      -0.15358888      -0.56955279       0.00000000
