3
Lattice="15.0 0.0 0.0 0.0 15.0 0.0 0.0 0.0 15.0" Properties=species:S:1:pos:R:3:forces:R:3 energy=0.4419218639 pbc="T T T"
O        0.00000000       0.00000000       0.00000000      -8.92047769      -0.47902220       0.00000000
H        0.84611589       0.00000000       0.00000000       8.81039781       0.21501040       0.00000000
H       -0.31502640       0.89710329       0.00000000       0.11007993       0.26401180       0.00000000
