3
Lattice="15.0 0.0 0.0 0.0 15.0 0.0 0.0 0.0 15.0" Properties=species:S:1:pos:R:3:forces:R:3 energy=0.0759245888 pbc="T T T"
O        0.00000000       0.00000000       0.00000000      -1.42414294      -1.69645251       0.00000000
H        0.93379847       0.00000000       0.00000000       1.17148483       0.65802074       0.00000000
H       -0.38314039       0.85725985       0.00000000       0.25265806       1.03843178       0.00000000
