3
Lattice="15.0 0.0 0.0 0.0 15.0 0.0 0.0 0.0 15.0" Properties=species:S:1:pos:R:3:forces:R:3 energy=0.0047582973 pbc="T T T"
O        0.00000000       0.00000000       0.00000000      -0.48772904      -0.30778778       0.00000000
H        0.95109597       0.00000000       0.00000000       0.35580002       0.16748138       0.00000000
H       -0.27448410       0.91548455       0.00000000       0.13192902       0.14030640       0.00000000
