3
Lattice="15.0 0.0 0.0 0.0 15.0 0.0 0.0 0.0 15.0" Properties=species:S:1:pos:R:3:forces:R:3 energy=0.0391252655 pbc="T T T"
O        0.00000000       0.00000000       0.00000000       0.99389500      -0.56206362       0.00000000
H        0.98523994       0.00000000       0.00000000      -1.41533578       0.42895046       0.00000000
H       -0.32189766       0.90112372       0.00000000       0.42144077       0.13311322       0.00000000
