3
Lattice="15.0 0.0 0.0 0.0 15.0 0.0 0.0 0.0 15.0" Properties=species:S:1:pos:R:3:forces:R:3 energy=0.8025494809 pbc="T T T"
O        0.00000000       0.00000000       0.00000000      -1.71466904       5.95954365       0.00000000
H        0.91628378       0.00000000       0.00000000       3.16700790      -1.37718779       0.00000000
H        0.08494070       1.13687198       0.00000000      -1.45233885      -4.58235586       0.00000000
