3
Lattice="15.0 0.0 0.0 0.0 15.0 0.0 0.0 0.0 15.0" Properties=species:S:1:pos:R:3:forces:R:3 energy=0.1946121837 pbc="T T T"
O        0.00000000       0.00000000       0.00000000      -2.86812967      -3.17144871       0.00000000
H        0.89845359       0.00000000       0.00000000       3.87859528      -0.07940403       0.00000000
H       -0.24838328       0.86969644       0.00000000      -1.01046562       3.25085280       0.00000000
