3
Lattice="15.0 0.0 0.0 0.0 15.0 0.0 0.0 0.0 15.0" Properties=species:S:1:pos:R:3:forces:R:3 energy=0.0589800642 pbc="T T T"
O        0.00000000       0.00000000       0.00000000      -1.00730856       1.54271394       0.00000000
H        0.93715833       0.00000000       0.00000000       1.45585474      -0.59341068       0.00000000
H       -0.12605177       0.97305120       0.00000000      -0.44854618      -0.94930326       0.00000000
