3
Lattice="15.0 0.0 0.0 0.0 15.0 0.0 0.0 0.0 15.0" Properties=species:S:1:pos:R:3:forces:R:3 energy=0.0202742704 pbc="T T T"
O        0.00000000       0.00000000       0.00000000       1.09335669      -1.10910809       0.00000000
H        0.97747166       0.00000000       0.00000000      -0.99005655       0.16224743       0.00000000
H       -0.26600878       0.90300887       0.00000000      -0.10330014       0.94686066       0.00000000
