3
Lattice="15.0 0.0 0.0 0.0 15.0 0.0 0.0 0.0 15.0" Properties=species:S:1:pos:R:3:forces:R:3 energy=0.1902591048 pbc="T T T"
O        0.00000000       0.00000000       0.00000000      -1.56979338      -1.07119001       0.00000000
H        0.94877759       0.00000000       0.00000000       0.12596571       1.18500447       0.00000000
H       -0.51369526       0.81919167       0.00000000       1.44382768      -0.11381446       0.00000000
