3
Lattice="15.0 0.0 0.0 0.0 15.0 0.0 0.0 0.0 15.0" Properties=species:S:1:pos:R:3:forces:R:3 energy=0.0217520228 pbc="T T T"
O        0.00000000       0.00000000       0.00000000      -0.51905481      -1.08863377       0.00000000
H        0.94883089       0.00000000       0.00000000       0.39983018       0.35518681       0.00000000
H       -0.31473613       0.89050315       0.00000000       0.11922463       0.73344701       0.00000000
