3
Lattice="15.0 0.0 0.0 0.0 15.0 0.0 0.0 0.0 15.0" Properties=species:S:1:pos:R:3:forces:R:3 energy=0.0211411762 pbc="T T T"
O        0.00000000       0.00000000       0.00000000      -0.63910821       1.17554307       0.00000000
H        0.95562399       0.00000000       0.00000000       0.16421032       0.11966696       0.00000000
H       -0.26070905       0.95184598       0.00000000       0.47489789      -1.29521008       0.00000000
