3
Lattice="15.0 0.0 0.0 0.0 15.0 0.0 0.0 0.0 15.0" Properties=species:S:1:pos:R:3:forces:R:3 energy=0.0135867403 pbc="T T T"
O        0.00000000       0.00000000       0.00000000      -0.36998963      -0.09594909       0.00000000
H        0.94699258       0.00000000       0.00000000       0.74639335      -0.29514694       0.00000000
H       -0.18432293       0.93407668       0.00000000      -0.37640372       0.39109603       0.00000000
