3
Lattice="15.0 0.0 0.0 0.0 15.0 0.0 0.0 0.0 15.0" Properties=species:S:1:pos:R:3:forces:R:3 energy=1.0550616707 pbc="T T T"
O        0.00000000       0.00000000       0.00000000      -6.18955413      -2.38383681       0.00000000
H        0.86181138       0.00000000       0.00000000       8.30829121      -3.23398841       0.00000000
H        0.16326426       0.88255307       0.00000000      -2.11873707       5.61782521       0.00000000
