3
Lattice="15.0 0.0 0.0 0.0 15.0 0.0 0.0 0.0 15.0" Properties=species:S:1:pos:R:3:forces:R:3 energy=0.7244395946 pbc="T T T"
O        0.00000000       0.00000000       0.00000000       5.47715469       3.88579381       0.00000000
H        1.07906752       0.00000000       0.00000000      -3.45089906      -1.54375000       0.00000000
H        0.18043137       1.03066398       0.00000000      -2.02625558      -2.34204381       0.00000000
