3
Lattice="15.0 0.0 0.0 0.0 15.0 0.0 0.0 0.0 15.0" Properties=species:S:1:pos:R:3:forces:R:3 energy=0.1432366923 pbc="T T T"
O        0.00000000       0.00000000       0.00000000      -1.53315314       3.00938439       0.00000000
H        0.94742526       0.00000000       0.00000000       0.68609149       0.08517179       0.00000000
H       -0.24981017       1.00789060       0.00000000       0.84706170      -3.09455618       0.00000000
