3
Lattice="15.0 0.0 0.0 0.0 15.0 0.0 0.0 0.0 15.0" Properties=species:S:1:pos:R:3:forces:R:3 energy=0.1098507653 pbc="T T T"
O        0.00000000       0.00000000       0.00000000      -1.61306656       2.72009694       0.00000000
H        0.93261199       0.00000000       0.00000000       1.72038502      -0.46487573       0.00000000
H       -0.14451219       1.00301191       0.00000000      -0.10731846      -2.25522122       0.00000000
