3
Lattice="15.0 0.0 0.0 0.0 15.0 0.0 0.0 0.0 15.0" Properties=species:S:1:pos:R:3:forces:R:3 energy=0.0031879527 pbc="T T T"
O        0.00000000       0.00000000       0.00000000       0.35102090       0.30442591       0.00000000
H        0.96783776       0.00000000       0.00000000      -0.45151267       0.01812150       0.00000000
H       -0.23723293       0.93597266       0.00000000       0.10049172      -0.32254741       0.00000000
