3
Lattice="15.0 0.0 0.0 0.0 15.0 0.0 0.0 0.0 15.0" Properties=species:S:1:pos:R:3:forces:R:3 energy=0.0103095833 pbc="T T T"
O        0.00000000       0.00000000       0.00000000      -0.35729835      -0.18478861       0.00000000
H        0.94768994       0.00000000       0.00000000       0.68435610      -0.23463796       0.00000000
H       -0.19577181       0.93095476       0.00000000      -0.32705769       0.41942657       0.00000000
