3
Lattice="15.0 0.0 0.0 0.0 15.0 0.0 0.0 0.0 15.0" Properties=species:S:1:pos:R:3:forces:R:3 energy=0.4132668595 pbc="T T T"
O        0.00000000       0.00000000       0.00000000      -2.73349497      -5.18566077       0.00000000
H        0.89041532       0.00000000       0.00000000       4.08122016       1.03614740       0.00000000
H       -0.46772034       0.75550289       0.00000000      -1.34772519       4.14951337       0.00000000
