3
Lattice="15.0 0.0 0.0 0.0 15.0 0.0 0.0 0.0 15.0" Properties=species:S:1:pos:R:3:forces:R:3 energy=0.0464811372 pbc="T T T"
O        0.00000000       0.00000000       0.00000000       1.92215563       0.26773789       0.00000000
H        0.99465355       0.00000000       0.00000000      -1.50736003      -0.37888432       0.00000000
H       -0.14624196       0.94772670       0.00000000      -0.41479565       0.11114642       0.00000000
