3
Lattice="15.0 0.0 0.0 0.0 15.0 0.0 0.0 0.0 15.0" Properties=species:S:1:pos:R:3:forces:R:3 energy=0.0017978128 pbc="T T T"
O        0.00000000       0.00000000       0.00000000       0.07068449      -0.10038748       0.00000000
H        0.96198393       0.00000000       0.00000000      -0.20234180       0.12077948       0.00000000
H       -0.26115687       0.92295289       0.00000000       0.13165726      -0.02039199       0.00000000
