3
Lattice="15.0 0.0 0.0 0.0 15.0 0.0 0.0 0.0 15.0" Properties=species:S:1:pos:R:3:forces:R:3 energy=0.0536603416 pbc="T T T"
O        0.00000000       0.00000000       0.00000000      -1.06932663      -1.50747886       0.00000000
H        0.93959231       0.00000000       0.00000000       0.85530045       0.56132191       0.00000000
H       -0.36094467       0.86860145       0.00000000       0.21402618       0.94615690       0.00000000
