3
Lattice="15.0 0.0 0.0 0.0 15.0 0.0 0.0 0.0 15.0" Properties=species:S:1:pos:R:3:forces:R:3 energy=0.1363391393 pbc="T T T"
O        0.00000000       0.00000000       0.00000000       0.97863113       1.16295206       0.00000000
H        1.00622180       0.00000000       0.00000000      -2.25500170       0.57684017       0.00000000
H       -0.35387473       0.93710849       0.00000000       1.27637057      -1.73979223       0.00000000
