3
Lattice="15.0 0.0 0.0 0.0 15.0 0.0 0.0 0.0 15.0" Properties=species:S:1:pos:R:3:forces:R:3 energy=0.0200739755 pbc="T T T"
O        0.00000000       0.00000000       0.00000000      -0.15744543       0.15108359       0.00000000
H        0.96478033       0.00000000       0.00000000      -0.42155673       0.37769518       0.00000000
H       -0.31535383       0.91734588       0.00000000       0.57900216      -0.52877878       0.00000000
