3
Lattice="15.0 0.0 0.0 0.0 15.0 0.0 0.0 0.0 15.0" Properties=species:S:1:pos:R:3:forces:R:3 energy=0.1893290631 pbc="T T T"
O        0.00000000       0.00000000       0.00000000      -0.09998891      -3.31360271       0.00000000
H        0.94703624       0.00000000       0.00000000       0.19111235       1.04840447       0.00000000
H       -0.47008537       0.78969269       0.00000000      -0.09112338       2.26519823       0.00000000
