3
Lattice="15.0 0.0 0.0 0.0 15.0 0.0 0.0 0.0 15.0" Properties=species:S:1:pos:R:3:forces:R:3 energy=1.8709647011 pbc="T T T"
O        0.00000000       0.00000000       0.00000000       9.26410800     -21.37682049       0.00000000
H        0.94510539       0.00000000       0.00000000       0.23244223       0.53259604       0.00000000
H       -0.33265725       0.67715357       0.00000000      -9.49655028      20.84422445       0.00000000
