3
Lattice="15.0 0.0 0.0 0.0 15.0 0.0 0.0 0.0 15.0" Properties=species:S:1:pos:R:3:forces:R:3 energy=0.1176018687 pbc="T T T"
O        0.00000000       0.00000000       0.00000000      -0.90999416       3.02361576       0.00000000
H        0.94610478       0.00000000       0.00000000       0.90353642      -0.40330081       0.00000000
H       -0.14811559       1.01346563       0.00000000       0.00645774      -2.62031495       0.00000000
