3
Lattice="15.0 0.0 0.0 0.0 15.0 0.0 0.0 0.0 15.0" Properties=species:S:1:pos:R:3:forces:R:3 energy=0.0045128016 pbc="T T T"
O        0.00000000       0.00000000       0.00000000       0.67944349      -0.24651471       0.00000000
H        0.96990318       0.00000000       0.00000000      -0.53534754      -0.06665274       0.00000000
H       -0.22030188       0.92742449       0.00000000      -0.14409590       0.31316745       0.00000000
