3
Lattice="15.0 0.0 0.0 0.0 15.0 0.0 0.0 0.0 15.0" Properties=species:S:1:pos:R:3:forces:R:3 energy=0.1075343879 pbc="T T T"
O        0.00000000       0.00000000       0.00000000      -0.49215715      -1.58642637       0.00000000
H        0.95599169       0.00000000       0.00000000      -0.19683835       0.91428652       0.00000000
H       -0.44018057       0.83917445       0.00000000       0.68899550       0.67213985       0.00000000
