3
Lattice="15.0 0.0 0.0 0.0 15.0 0.0 0.0 0.0 15.0" Properties=species:S:1:pos:R:3:forces:R:3 energy=0.0115053822 pbc="T T T"
O        0.00000000       0.00000000       0.00000000       0.52617342       0.78980156       0.00000000
H        0.96904896       0.00000000       0.00000000      -0.42051759      -0.21532017       0.00000000
H       -0.18790136       0.95318899       0.00000000      -0.10565583      -0.57448139       0.00000000
