3
Lattice="15.0 0.0 0.0 0.0 15.0 0.0 0.0 0.0 15.0" Properties=species:S:1:pos:R:3:forces:R:3 energy=0.4614394945 pbc="T T T"
O        0.00000000       0.00000000       0.00000000      -9.04429585      -0.42318558       0.00000000
H        0.85218787       0.00000000       0.00000000       7.95691997       0.86683447       0.00000000
H       -0.44297793       0.86008207       0.00000000       1.08737588      -0.44364889       0.00000000
