3
Lattice="15.0 0.0 0.0 0.0 15.0 0.0 0.0 0.0 15.0" Properties=species:S:1:pos:R:3:forces:R:3 energy=0.6151898473 pbc="T T T"
O        0.00000000       0.00000000       0.00000000      -3.51368523       5.41766561       0.00000000
H        0.90056020       0.00000000       0.00000000       4.18439606      -0.95849810       0.00000000
H       -0.02675469       1.10909443       0.00000000      -0.67071078      -4.45916747       0.00000000
