3
Lattice="15.0 0.0 0.0 0.0 15.0 0.0 0.0 0.0 15.0" Properties=species:S:1:pos:R:3:forces:R:3 energy=0.1931513676 pbc="T T T"
O        0.00000000       0.00000000       0.00000000      -2.86932019       3.19221434       0.00000000
H        0.92720899       0.00000000       0.00000000       1.91712181       0.11075731       0.00000000
H       -0.26074012       1.01230213       0.00000000       0.95219838      -3.30297165       0.00000000
