3
Lattice="15.0 0.0 0.0 0.0 15.0 0.0 0.0 0.0 15.0" Properties=species:S:1:pos:R:3:forces:R:3 energy=0.6279021442 pbc="T T T"
O        0.00000000       0.00000000       0.00000000      -2.76995271      -1.37387826       0.00000000
H        0.89929087       0.00000000       0.00000000       4.77642971      -2.58224564       0.00000000
H        0.12760582       0.90574949       0.00000000      -2.00647700       3.95612390       0.00000000
