3
Lattice="15.0 0.0 0.0 0.0 15.0 0.0 0.0 0.0 15.0" Properties=species:S:1:pos:R:3:forces:R:3 energy=0.8489006592 pbc="T T T"
O        0.00000000       0.00000000       0.00000000       7.05760957      -6.93480571       0.00000000
H        1.12865578       0.00000000       0.00000000      -5.36118894       0.53964462       0.00000000
H       -0.31038782       0.81106485       0.00000000      -1.69642058       6.39516108       0.00000000
