3
Lattice="15.0 0.0 0.0 0.0 15.0 0.0 0.0 0.0 15.0" Properties=species:S:1:pos:R:3:forces:R:3 energy=0.0489291497 pbc="T T T"
O        0.00000000       0.00000000       0.00000000      -1.50456621      -1.54113914       0.00000000
H        0.92807309       0.00000000       0.00000000       1.67597680       0.25236598       0.00000000
H       -0.29943565       0.88495451       0.00000000      -0.17141054       1.28877311       0.00000000
