3
Lattice="15.0 0.0 0.0 0.0 15.0 0.0 0.0 0.0 15.0" Properties=species:S:1:pos:R:3:forces:R:3 energy=0.1290915935 pbc="T T T"
O        0.00000000       0.00000000       0.00000000      -2.65737860       0.63007520       0.00000000
H        0.93562833       0.00000000       0.00000000       1.08318637       0.83849596       0.00000000
H       -0.42859048       0.89819794       0.00000000       1.57419223      -1.46857121       0.00000000
