3
Lattice="15.0 0.0 0.0 0.0 15.0 0.0 0.0 0.0 15.0" Properties=species:S:1:pos:R:3:forces:R:3 energy=0.1415014005 pbc="T T T"
O        0.00000000       0.00000000       0.00000000       0.55250837       2.96950492       0.00000000
H        0.98531983       0.00000000       0.00000000      -1.17502859      -0.01027156       0.00000000
H       -0.21627267       1.01182354       0.00000000       0.62252016      -2.95923341       0.00000000
