3
Lattice="15.0 0.0 0.0 0.0 15.0 0.0 0.0 0.0 15.0" Properties=species:S:1:pos:R:3:forces:R:3 energy=0.629478391 pbc="T T T"
O        0.00000000       0.00000000       0.00000000      -0.62485838      -1.66863003       0.00000000
H        0.93155373       0.00000000       0.00000000       2.62155088      -2.70891398       0.00000000
H        0.16762078       0.89634812       0.00000000      -1.99669251       4.37754400       0.00000000
