3
Lattice="15.0 0.0 0.0 0.0 15.0 0.0 0.0 0.0 15.0" Properties=species:S:1:pos:R:3:forces:R:3 energy=0.0489009342 pbc="T T T"
O        0.00000000       0.00000000       0.00000000      -0.57505336       1.50386224       0.00000000
H        0.94464348       0.00000000       0.00000000       1.00563528      -0.56912048       0.00000000
H       -0.12712682       0.97260284       0.00000000      -0.43058192      -0.93474176       0.00000000
