3
Lattice="15.0 0.0 0.0 0.0 15.0 0.0 0.0 0.0 15.0" Properties=species:S:1:pos:R:3:forces:R:3 energy=0.7828721168 pbc="T T T"
O        0.00000000       0.00000000       0.00000000       5.81425913      -1.38543486       0.00000000
H        1.13706980       0.00000000       0.00000000      -4.59482675      -1.18683870       0.00000000
H        0.08692545       0.92331678       0.00000000      -1.21943238       2.57227356       0.00000000
