3
Lattice="15.0 0.0 0.0 0.0 15.0 0.0 0.0 0.0 15.0" Properties=species:S:1:pos:R:3:forces:R:3 energy=0.7453569762 pbc="T T T"
O        0.00000000       0.00000000       0.00000000       2.50829420       1.84052527       0.00000000
H        1.11028078       0.00000000       0.00000000      -4.99968261       0.95906256       0.00000000
H       -0.45872855       0.94287970       0.00000000       2.49138841      -2.79958783       0.00000000
