3
Lattice="15.0 0.0 0.0 0.0 15.0 0.0 0.0 0.0 15.0" Properties=species:S:1:pos:R:3:forces:R:3 energy=0.0260407876 pbc="T T T"
O        0.00000000       0.00000000       0.00000000       1.29685178       0.40667029       0.00000000
H        0.98998704       0.00000000       0.00000000      -1.46561701       0.05089439       0.00000000
H       -0.23641972       0.93954264       0.00000000       0.16876523      -0.45756474       0.00000000
