3
Lattice="15.0 0.0 0.0 0.0 15.0 0.0 0.0 0.0 15.0" Properties=species:S:1:pos:R:3:forces:R:3 energy=0.0146810707 pbc="T T T"
O        0.00000000       0.00000000       0.00000000      -0.29963491       1.09743194       0.00000000
H        0.95425581       0.00000000       0.00000000       0.34547647      -0.22175672       0.00000000
H       -0.19146013       0.95886305       0.00000000      -0.04584156      -0.87567521       0.00000000
