3
Lattice="15.0 0.0 0.0 0.0 15.0 0.0 0.0 0.0 15.0" Properties=species:S:1:pos:R:3:forces:R:3 energy=1.1009582365 pbc="T T T"
O        0.00000000       0.00000000       0.00000000       8.31129276     -10.70003596       0.00000000
H        0.97390417       0.00000000       0.00000000      -1.68762422       1.47887317       0.00000000
H       -0.57689517       0.58568201       0.00000000      -6.62366855       9.22116279       0.00000000
