3
Lattice="15.0 0.0 0.0 0.0 15.0 0.0 0.0 0.0 15.0" Properties=species:S:1:pos:R:3:forces:R:3 energy=0.1490707373 pbc="T T T"
O        0.00000000       0.00000000       0.00000000       3.30080843       0.54946449       0.00000000
H        1.03072363       0.00000000       0.00000000      -2.71393941      -0.54606303       0.00000000
H       -0.09442681       0.95850842       0.00000000      -0.58686902      -0.00340142       0.00000000
