3
Lattice="15.0 0.0 0.0 0.0 15.0 0.0 0.0 0.0 15.0" Properties=species:S:1:pos:R:3:forces:R:3 energy=1.7252955639 pbc="T T T"
O        0.00000000       0.00000000       0.00000000       2.14999224       5.55336907       0.00000000
H        1.05883165       0.00000000       0.00000000      -3.50411403       0.29530934       0.00000000
H       -0.24365118       1.28328210       0.00000000       1.35412179      -5.84867835       0.00000000
