3
Lattice="15.0 0.0 0.0 0.0 15.0 0.0 0.0 0.0 15.0" Properties=species:S:1:pos:R:3:forces:R:3 energy=0.3378551727 pbc="T T T"
O        0.00000000       0.00000000       0.00000000       3.88210839      -1.25916340       0.00000000
H        1.07653758       0.00000000       0.00000000      -4.37798896       0.61527392       0.00000000
H       -0.34821344       0.88358872       0.00000000       0.49588057       0.64388954       0.00000000
