3
Lattice="15.0 0.0 0.0 0.0 15.0 0.0 0.0 0.0 15.0" Properties=species:S:1:pos:R:3:forces:R:3 energy=0.0051589142 pbc="T T T"
O        0.00000000       0.00000000       0.00000000      -0.01479660       0.09436796       0.00000000
H        0.95541251       0.00000000       0.00000000       0.25952249      -0.21523502       0.00000000
H       -0.19559944       0.93688381       0.00000000      -0.24472594       0.12086705       0.00000000
