3
Lattice="15.0 0.0 0.0 0.0 15.0 0.0 0.0 0.0 15.0" Properties=species:S:1:pos:R:3:forces:R:3 energy=1.6356359301 pbc="T T T"
O        0.00000000       0.00000000       0.00000000       6.43806094      -4.32661084       0.00000000
H        1.20280589       0.00000000       0.00000000      -6.42982954       1.52610312       0.00000000
H       -0.65735185       0.64547392       0.00000000      -0.00823139       2.80050772       0.00000000
