3
Lattice="15.0 0.0 0.0 0.0 15.0 0.0 0.0 0.0 15.0" Properties=species:S:1:pos:R:3:forces:R:3 energy=0.0437174318 pbc="T T T"
O        0.00000000       0.00000000       0.00000000      -0.76465796      -1.23285987       0.00000000
H        0.94697656       0.00000000       0.00000000       0.43128116       0.56267683       0.00000000
H       -0.35993775       0.87473878       0.00000000       0.33337680       0.67018299       0.00000000
