3
Lattice="15.0 0.0 0.0 0.0 15.0 0.0 0.0 0.0 15.0" Properties=species:S:1:pos:R:3:forces:R:3 energy=0.0761211312 pbc="T T T"
O        0.00000000       0.00000000       0.00000000      -2.27829714       0.04194176       0.00000000
H        0.93318072       0.00000000       0.00000000       1.26011126       0.67581324       0.00000000
H       -0.38924483       0.89378400       0.00000000       1.01818592      -0.71775495       0.00000000
