3
Lattice="15.0 0.0 0.0 0.0 15.0 0.0 0.0 0.0 15.0" Properties=species:S:1:pos:R:3:forces:R:3 energy=0.0231564732 pbc="T T T"
O        0.00000000       0.00000000       0.00000000      -0.52812932      -1.03777296       0.00000000
H        0.94960986       0.00000000       0.00000000       0.34570421       0.39042097       0.00000000
H       -0.32201529       0.88962755       0.00000000       0.18242505       0.64735199       0.00000000
