3
Lattice="15.0 0.0 0.0 0.0 15.0 0.0 0.0 0.0 15.0" Properties=species:S:1:pos:R:3:forces:R:3 energy=0.0234973257 pbc="T T T"
O        0.00000000       0.00000000       0.00000000      -0.46089015      -1.02379206       0.00000000
H        0.95119679       0.00000000       0.00000000       0.25284606       0.40562056       0.00000000
H       -0.32487405       0.88922059       0.00000000       0.20804410       0.61817150       0.00000000
