3
Lattice="15.0 0.0 0.0 0.0 15.0 0.0 0.0 0.0 15.0" Properties=species:S:1:pos:R:3:forces:R:3 energy=0.0441636142 pbc="T T T"
O        0.00000000       0.00000000       0.00000000       0.91680784       0.02999600       0.00000000
H        0.98823530       0.00000000       0.00000000      -1.52391891       0.41773504       0.00000000
H       -0.31874054       0.91503939       0.00000000       0.60711107      -0.44773104       0.00000000
