3
Lattice="15.0 0.0 0.0 0.0 15.0 0.0 0.0 0.0 15.0" Properties=species:S:1:pos:R:3:forces:R:3 energy=0.5636756268 pbc="T T T"
O        0.00000000       0.00000000       0.00000000       4.63056407      -9.54352647       0.00000000
H        0.97484288       0.00000000       0.00000000      -1.21292178       0.64356414       0.00000000
H       -0.36126381       0.75720633       0.00000000      -3.41764229       8.89996233       0.00000000
