3
Lattice="15.0 0.0 0.0 0.0 15.0 0.0 0.0 0.0 15.0" Properties=species:S:1:pos:R:3:forces:R:3 energy=1.2000637452 pbc="T T T"
O        0.00000000       0.00000000       0.00000000     -13.16681062      -1.47235048       0.00000000
H        0.82907007       0.00000000       0.00000000      10.24106380       1.87753210       0.00000000
H       -0.75737132       0.63692408       0.00000000       2.92574683      -0.40518162       0.00000000
