3
Lattice="15.0 0.0 0.0 0.0 15.0 0.0 0.0 0.0 15.0" Properties=species:S:1:pos:R:3:forces:R:3 energy=0.0190873097 pbc="T T T"
O        0.00000000       0.00000000       0.00000000       1.03695123      -1.15083835       0.00000000
H        0.97562637       0.00000000       0.00000000      -0.89939252       0.14392235       0.00000000
H       -0.26278985       0.90283566       0.00000000      -0.13755866       1.00691600       0.00000000
