3
Lattice="15.0 0.0 0.0 0.0 15.0 0.0 0.0 0.0 15.0" Properties=species:S:1:pos:R:3:forces:R:3 energy=0.0297159628 pbc="T T T"
O        0.00000000       0.00000000       0.00000000      -0.31051814      -0.42621768       0.00000000
H        0.96056333       0.00000000       0.00000000      -0.26539402       0.50813044       0.00000000
H       -0.34543671       0.89664219       0.00000000       0.57591216      -0.08191276       0.00000000
