3
Lattice="15.0 0.0 0.0 0.0 15.0 0.0 0.0 0.0 15.0" Properties=species:S:1:pos:R:3:forces:R:3 energy=0.6202071262 pbc="T T T"
O        0.00000000       0.00000000       0.00000000       3.75572277       2.92383172       0.00000000
H        1.11520621       0.00000000       0.00000000      -4.86122463       0.28255625       0.00000000
H       -0.25238182       1.01704262       0.00000000       1.10550186      -3.20638796       0.00000000
