3
Lattice="15.0 0.0 0.0 0.0 15.0 0.0 0.0 0.0 15.0" Properties=species:S:1:pos:R:3:forces:R:3 energy=0.9751068661 pbc="T T T"
O        0.00000000       0.00000000       0.00000000       1.90709446       2.33086892       0.00000000
H        1.11499483       0.00000000       0.00000000      -5.06604030       1.10901615       0.00000000
H       -0.51775876       0.95524835       0.00000000       3.15894589      -3.43988502       0.00000000
