3
Lattice="15.0 0.0 0.0 0.0 15.0 0.0 0.0 0.0 15.0" Properties=species:S:1:pos:R:3:forces:R:3 energy=0.0619914612 pbc="T T T"
O        0.00000000       0.00000000       0.00000000       1.32999424      -2.61430849       0.00000000
H        0.97313419       0.00000000       0.00000000      -0.86466153       0.28650443       0.00000000
H       -0.29373133       0.87021973       0.00000000      -0.46533271       2.32780406       0.00000000
