3
Lattice="15.0 0.0 0.0 0.0 15.0 0.0 0.0 0.0 15.0" Properties=species:S:1:pos:R:3:forces:R:3 energy=0.0209973531 pbc="T T T"
O        0.00000000       0.00000000       0.00000000      -0.52359332      -0.49615398       0.00000000
H        0.95423113       0.00000000       0.00000000       0.09375044       0.42838630       0.00000000
H       -0.32913922       0.89910665       0.00000000       0.42984283       0.06776768       0.00000000
