3
Lattice="15.0 0.0 0.0 0.0 15.0 0.0 0.0 0.0 15.0" Properties=species:S:1:pos:R:3:forces:R:3 energy=0.0022291949 pbc="T T T"
O        0.00000000       0.00000000       0.00000000      -0.07182277      -0.09829471       0.00000000
H        0.95503288       0.00000000       0.00000000       0.24222662      -0.11735410       0.00000000
H       -0.21539310       0.93029748       0.00000000      -0.17040385       0.21564881       0.00000000
