3
Lattice="15.0 0.0 0.0 0.0 15.0 0.0 0.0 0.0 15.0" Properties=species:S:1:pos:R:3:forces:R:3 energy=0.0508795802 pbc="T T T"
O        0.00000000       0.00000000       0.00000000      -1.02610539      -1.90628579       0.00000000
H        0.93431289       0.00000000       0.00000000       1.24913234       0.31962941       0.00000000
H       -0.31129771       0.87562778       0.00000000      -0.22302695       1.58665638       0.00000000
