3
Lattice="15.0 0.0 0.0 0.0 15.0 0.0 0.0 0.0 15.0" Properties=species:S:1:pos:R:3:forces:R:3 energy=1.4924645179 pbc="T T T"
O        0.00000000       0.00000000       0.00000000       4.09755146       4.95891729       0.00000000
H        1.17706753       0.00000000       0.00000000      -5.48864753       0.29531412       0.00000000
H       -0.23732116       1.14625077       0.00000000       1.39109613      -5.25423146       0.00000000
