3
Lattice="15.0 0.0 0.0 0.0 15.0 0.0 0.0 0.0 15.0" Properties=species:S:1:pos:R:3:forces:R:3 energy=0.4926759343 pbc="T T T"
O        0.00000000       0.00000000       0.00000000       4.69754489      -2.39167219       0.00000000
H        1.06828202       0.00000000       0.00000000      -3.42504692      -1.23351890       0.00000000
H        0.04423465       0.90953937       0.00000000      -1.27249797       3.62519114       0.00000000
