3
Lattice="15.0 0.0 0.0 0.0 15.0 0.0 0.0 0.0 15.0" Properties=species:S:1:pos:R:3:forces:R:3 energy=0.0102138563 pbc="T T T"
O        0.00000000       0.00000000       0.00000000      -1.06474199       0.33707729       0.00000000
H        0.94385896       0.00000000       0.00000000       0.79294371       0.13367429       0.00000000
H       -0.26889278       0.92992264       0.00000000       0.27179823      -0.47075157       0.00000000
