3
Lattice="15.0 0.0 0.0 0.0 15.0 0.0 0.0 0.0 15.0" Properties=species:S:1:pos:R:3:forces:R:3 energy=0.5647169141 pbc="T T T"
O        0.00000000       0.00000000       0.00000000      -0.47116568       5.10567084       0.00000000
H        0.93098997       0.00000000       0.00000000       2.26497650      -1.65561381       0.00000000
H        0.11308804       1.07676912       0.00000000      -1.79381077      -3.45005697       0.00000000
