3
Lattice="15.0 0.0 0.0 0.0 15.0 0.0 0.0 0.0 15.0" Properties=species:S:1:pos:R:3:forces:R:3 energy=0.38981354 pbc="T T T"
O        0.00000000       0.00000000       0.00000000       1.93466888      -1.14306924       0.00000000
H        1.03711395       0.00000000       0.00000000      -3.58966244       1.24436947       0.00000000
H       -0.53289351       0.81241112       0.00000000       1.65499361      -0.10130023       0.00000000
