3
Lattice="15.0 0.0 0.0 0.0 15.0 0.0 0.0 0.0 15.0" Properties=species:S:1:pos:R:3:forces:R:3 energy=0.1621146893 pbc="T T T"
O        0.00000000       0.00000000       0.00000000       1.22805355      -0.06671970       0.00000000
H        1.01007728       0.00000000       0.00000000      -2.51718811       0.82234074       0.00000000
H       -0.41460212       0.88734706       0.00000000       1.28913456      -0.75562104       0.00000000
