3
Lattice="15.0 0.0 0.0 0.0 15.0 0.0 0.0 0.0 15.0" Properties=species:S:1:pos:R:3:forces:R:3 energy=0.2618540709 pbc="T T T"
O        0.00000000       0.00000000       0.00000000      -4.86452362       1.06598594       0.00000000
H        0.91091192       0.00000000       0.00000000       2.71849427       1.01883713       0.00000000
H       -0.47719560       0.89604521       0.00000000       2.14602935      -2.08482313       0.00000000
