3
Lattice="15.0 0.0 0.0 0.0 15.0 0.0 0.0 0.0 15.0" Properties=species:S:1:pos:R:3:forces:R:3 energy=0.0965430669 pbc="T T T"
O        0.00000000       0.00000000       0.00000000      -0.86200830      -1.46402679       0.00000000
H        0.94930718       0.00000000       0.00000000       0.18927869       0.86884291       0.00000000
H       -0.43004741       0.84557232       0.00000000       0.67272961       0.59518387       0.00000000
