3
Lattice="15.0 0.0 0.0 0.0 15.0 0.0 0.0 0.0 15.0" Properties=species:S:1:pos:R:3:forces:R:3 energy=0.2326978055 pbc="T T T"
O        0.00000000       0.00000000       0.00000000      -3.02109181      -0.28983509       0.00000000
H        0.93356990       0.00000000       0.00000000       1.05401874       1.22691805       0.00000000
H       -0.52866718       0.83414224       0.00000000       1.96707308      -0.93708296       0.00000000
