3
Lattice="15.0 0.0 0.0 0.0 15.0 0.0 0.0 0.0 15.0" Properties=species:S:1:pos:R:3:forces:R:3 energy=0.5473684092 pbc="T T T"
O        0.00000000       0.00000000       0.00000000       2.94204717      -4.61034475       0.00000000
H        1.00862166       0.00000000       0.00000000      -1.48674378      -1.73451231       0.00000000
H        0.07469879       0.87645884       0.00000000      -1.45530339       6.34485707       0.00000000
