3
Lattice="15.0 0.0 0.0 0.0 15.0 0.0 0.0 0.0 15.0" Properties=species:S:1:pos:R:3:forces:R:3 energy=0.1242993799 pbc="T T T"
O        0.00000000       0.00000000       0.00000000      -1.01231218      -3.26942944       0.00000000
H        0.92737470       0.00000000       0.00000000       1.58203354       0.53676499       0.00000000
H       -0.35689159       0.83809867       0.00000000      -0.56972130       2.73266445       0.00000000
