3
Lattice="15.0 0.0 0.0 0.0 15.0 0.0 0.0 0.0 15.0" Properties=species:S:1:pos:R:3:forces:R:3 energy=0.5510450294 pbc="T T T"
O        0.00000000       0.00000000       0.00000000       5.93527808      -6.94441269       0.00000000
H        1.04991937       0.00000000       0.00000000      -3.94222107       0.82133158       0.00000000
H       -0.39298970       0.77467722       0.00000000      -1.99305702       6.12308111       0.00000000
