3
Lattice="15.0 0.0 0.0 0.0 15.0 0.0 0.0 0.0 15.0" Properties=species:S:1:pos:R:3:forces:R:3 energy=0.5362937996 pbc="T T T"
O        0.00000000       0.00000000       0.00000000      -1.72646692       5.08719565       0.00000000
H        0.91626988       0.00000000       0.00000000       3.16343648      -1.44370581       0.00000000
H        0.06302766       1.08037418       0.00000000      -1.43696956      -3.64348985       0.00000000
