3
Lattice="15.0 0.0 0.0 0.0 15.0 0.0 0.0 0.0 15.0" Properties=species:S:1:pos:R:3:forces:R:3 energy=1.1835864047 pbc="T T T"
O        0.00000000       0.00000000       0.00000000      -4.06131112      -6.68848434       0.00000000
H        0.89182916       0.00000000       0.00000000       5.62572797      -3.19964972       0.00000000
H        0.15618735       0.83682267       0.00000000      -1.56441684       9.88813406       0.00000000
