3
Lattice="15.0 0.0 0.0 0.0 15.0 0.0 0.0 0.0 15.0" Properties=species:S:1:pos:R:3:forces:R:3 energy=0.5572590052 pbc="T T T"
O        0.00000000       0.00000000       0.00000000       4.40955703       4.15498206       0.00000000
H        1.07947114       0.00000000       0.00000000      -3.86912169      -0.61230604       0.00000000
H       -0.02418321       1.06449998       0.00000000      -0.54043534      -3.54267602       0.00000000
