3
Lattice="15.0 0.0 0.0 0.0 15.0 0.0 0.0 0.0 15.0" Properties=species:S:1:pos:R:3:forces:R:3 energy=0.8406870003 pbc="T T T"
O        0.00000000       0.00000000       0.00000000       2.68846681      -0.01572652       0.00000000
H        0.99525917       0.00000000       0.00000000      -0.26310327      -3.10810955       0.00000000
H        0.29461359       0.89596878       0.00000000      -2.42536348       3.12383602       0.00000000
