3
Lattice="15.0 0.0 0.0 0.0 15.0 0.0 0.0 0.0 15.0" Properties=species:S:1:pos:R:3:forces:R:3 energy=0.833366898 pbc="T T T"
O        0.00000000       0.00000000       0.00000000       3.27558811       4.65272293       0.00000000
H        1.09293633       0.00000000       0.00000000      -4.36510413       0.15732151       0.00000000
H       -0.21448928       1.10475231       0.00000000       1.08951602      -4.81004443       0.00000000
