3
Lattice="15.0 0.0 0.0 0.0 15.0 0.0 0.0 0.0 15.0" Properties=species:S:1:pos:R:3:forces:R:3 energy=0.3253088135 pbc="T T T"
O        0.00000000       0.00000000       0.00000000      -0.59193847      -1.89006058       0.00000000
H        0.96563336       0.00000000       0.00000000      -0.91115506       1.44653757       0.00000000
H       -0.59251766       0.75446380       0.00000000       1.50309353       0.44352306       0.00000000
