3
Lattice="15.0 0.0 0.0 0.0 15.0 0.0 0.0 0.0 15.0" Properties=species:S:1:pos:R:3:forces:R:3 energy=0.0699065269 pbc="T T T"
O        0.00000000       0.00000000       0.00000000       1.90178662      -2.28471518       0.00000000
H        0.98951680       0.00000000       0.00000000      -1.60247356       0.32411193       0.00000000
H       -0.29722210       0.87540595       0.00000000      -0.29931301       1.96060325       0.00000000
