3
Lattice="15.0 0.0 0.0 0.0 15.0 0.0 0.0 0.0 15.0" Properties=species:S:1:pos:R:3:forces:R:3 energy=0.2484106557 pbc="T T T"
O        0.00000000       0.00000000       0.00000000       1.02581681       1.94563876       0.00000000
H        1.02008062       0.00000000       0.00000000      -2.73880491       0.65715299       0.00000000
H       -0.37358405       0.95897369       0.00000000       1.71298811      -2.60279180       0.00000000
