3
Lattice="15.0 0.0 0.0 0.0 15.0 0.0 0.0 0.0 15.0" Properties=species:S:1:pos:R:3:forces:R:3 energy=0.7847096445 pbc="T T T"
O        0.00000000       0.00000000       0.00000000       1.20037546       2.09322729       0.00000000
H        1.07738478       0.00000000       0.00000000      -4.40409873       1.16976718       0.00000000
H       -0.53355111       0.93680490       0.00000000       3.20372327      -3.26299442       0.00000000
