3
Lattice="15.0 0.0 0.0 0.0 15.0 0.0 0.0 0.0 15.0" Properties=species:S:1:pos:R:3:forces:R:3 energy=1.0211672472 pbc="T T T"
O        0.00000000       0.00000000       0.00000000      -9.14329870       1.29753065       0.00000000
H        0.88696090       0.00000000       0.00000000       4.50056235       1.79225160       0.00000000
H       -0.72916663       0.82766346       0.00000000       4.64273635      -3.08978226       0.00000000
