3
Lattice="15.0 0.0 0.0 0.0 15.0 0.0 0.0 0.0 15.0" Properties=species:S:1:pos:R:3:forces:R:3 energy=0.4314563105 pbc="T T T"
O        0.00000000       0.00000000       0.00000000      -2.59569622      -4.54984003       0.00000000
H        0.89781182       0.00000000       0.00000000       3.36946128       1.32173328       0.00000000
H       -0.54060823       0.72176089       0.00000000      -0.77376502       3.22810680       0.00000000
