3
Lattice="15.0 0.0 0.0 0.0 15.0 0.0 0.0 0.0 15.0" Properties=species:S:1:pos:R:3:forces:R:3 energy=0.0117933712 pbc="T T T"
O        0.00000000       0.00000000       0.00000000      -0.80412313      -0.68035607       0.00000000
H        0.94230058       0.00000000       0.00000000       0.87041011       0.09877895       0.00000000
H       -0.26374484       0.90980940       0.00000000      -0.06628698       0.58157713       0.00000000
