3
Lattice="15.0 0.0 0.0 0.0 15.0 0.0 0.0 0.0 15.0" Properties=species:S:1:pos:R:3:forces:R:3 energy=0.9048260602 pbc="T T T"
O        0.00000000       0.00000000       0.00000000       6.12508127       1.22653151       0.00000000
H        1.18652459       0.00000000       0.00000000      -5.31338481      -0.66178339       0.00000000
H        0.01784283       0.97979848       0.00000000      -0.81169647      -0.56474811       0.00000000
