3
Lattice="15.0 0.0 0.0 0.0 15.0 0.0 0.0 0.0 15.0" Properties=species:S:1:pos:R:3:forces:R:3 energy=1.207504598 pbc="T T T"
O        0.00000000       0.00000000       0.00000000       3.61513843      -8.61070080       0.00000000
H        1.06663227       0.00000000       0.00000000      -2.90897942      -2.12524783       0.00000000
H        0.15683952       0.82564538       0.00000000      -0.70615906      10.73594868       0.00000000
