3
Lattice="15.0 0.0 0.0 0.0 15.0 0.0 0.0 0.0 15.0" Properties=species:S:1:pos:R:3:forces:R:3 energy=0.019982216 pbc="T T T"
O        0.00000000       0.00000000       0.00000000       0.12510320       0.33572540       0.00000000
H        0.97046712       0.00000000       0.00000000      -0.67873278       0.32291436       0.00000000
H       -0.30166479       0.92492566       0.00000000       0.55362958      -0.65863976       0.00000000
