3
Lattice="15.0 0.0 0.0 0.0 15.0 0.0 0.0 0.0 15.0" Properties=species:S:1:pos:R:3:forces:R:3 energy=0.0395949803 pbc="T T T"
O        0.00000000       0.00000000       0.00000000       0.36586507      -1.00204834       0.00000000
H        0.97021618       0.00000000       0.00000000      -0.77569432       0.53998848       0.00000000
H       -0.35021977       0.88349735       0.00000000       0.40982926       0.46205990       0.00000000
