3
Lattice="15.0 0.0 0.0 0.0 15.0 0.0 0.0 0.0 15.0" Properties=species:S:1:pos:R:3:forces:R:3 energy=0.0820918998 pbc="T T T"
O        0.00000000       0.00000000       0.00000000      -0.30171036      -0.15308530       0.00000000
H        0.97020379       0.00000000       0.00000000      -0.82302697       0.76931618       0.00000000
H       -0.40569433       0.88589118       0.00000000       1.12473732      -0.61623088       0.00000000
