3
Lattice="15.0 0.0 0.0 0.0 15.0 0.0 0.0 0.0 15.0" Properties=species:S:1:pos:R:3:forces:R:3 energy=0.3102841256 pbc="T T T"
O        0.00000000       0.00000000       0.00000000       1.24642543       1.92805821       0.00000000
H        0.96158823       0.00000000       0.00000000       0.59138954      -1.85248158       0.00000000
H        0.10832140       0.97371668       0.00000000      -1.83781492      -0.07557664       0.00000000
