3
Lattice="15.0 0.0 0.0 0.0 15.0 0.0 0.0 0.0 15.0" Properties=species:S:1:pos:R:3:forces:R:3 energy=0.0499924509 pbc="T T T"
O        0.00000000       0.00000000       0.00000000      -1.20917784      -1.80085745       0.00000000
H        0.93101620       0.00000000       0.00000000       1.48825554       0.23219757       0.00000000
H       -0.29467454       0.88170584       0.00000000      -0.27907764       1.56865983       0.00000000
