3
Lattice="15.0 0.0 0.0 0.0 15.0 0.0 0.0 0.0 15.0" Properties=species:S:1:pos:R:3:forces:R:3 energy=0.0035302474 pbc="T T T"
O        0.00000000       0.00000000       0.00000000       0.21447422       0.34345188       0.00000000
H        0.96175167       0.00000000       0.00000000      -0.08361756      -0.16550204       0.00000000
H       -0.20214091       0.94149519       0.00000000      -0.13085667      -0.17794978       0.00000000
