3
Lattice="15.0 0.0 0.0 0.0 15.0 0.0 0.0 0.0 15.0" Properties=species:S:1:pos:R:3:forces:R:3 energy=0.0335590758 pbc="T T T"
O        0.00000000       0.00000000       0.00000000      -1.14107283       0.77155176       0.00000000
H        0.93541791       0.00000000       0.00000000       1.48615268      -0.41421566       0.00000000
H       -0.16387438       0.95313171       0.00000000      -0.34507985      -0.35733610       0.00000000
