3
Lattice="15.0 0.0 0.0 0.0 15.0 0.0 0.0 0.0 15.0" Properties=species:S:1:pos:R:3:forces:R:3 energy=0.5436888312 pbc="T T T"
O        0.00000000       0.00000000       0.00000000       5.32742458      -5.61174064       0.00000000
H        1.04974409       0.00000000       0.00000000      -4.04339963       1.11973133       0.00000000
H       -0.47599016       0.74976805       0.00000000      -1.28402495       4.49200931       0.00000000
