3
Lattice="15.0 0.0 0.0 0.0 15.0 0.0 0.0 0.0 15.0" Properties=species:S:1:pos:R:3:forces:R:3 energy=0.4301542402 pbc="T T T"
O        0.00000000       0.00000000       0.00000000       4.32364579      -4.63604767       0.00000000
H        1.03613223       0.00000000       0.00000000      -3.63049050       1.11400671       0.00000000
H       -0.47818969       0.76454063       0.00000000      -0.69315529       3.52204090       0.00000000
