3
Lattice="15.0 0.0 0.0 0.0 15.0 0.0 0.0 0.0 15.0" Properties=species:S:1:pos:R:3:forces:R:3 energy=0.0059897349 pbc="T T T"
O        0.00000000       0.00000000       0.00000000      -0.22054687      -0.58852384       0.00000000
H        0.95080033       0.00000000       0.00000000       0.44160985      -0.05740854       0.00000000
H       -0.22977610       0.91830788       0.00000000      -0.22106299       0.64593238       0.00000000
