3
Lattice="15.0 0.0 0.0 0.0 15.0 0.0 0.0 0.0 15.0" Properties=species:S:1:pos:R:3:forces:R:3 energy=0.5492503133 pbc="T T T"
O        0.00000000       0.00000000       0.00000000       4.95225654      -8.97651722       0.00000000
H        0.98430432       0.00000000       0.00000000      -1.69952550       0.79708313       0.00000000
H       -0.39335958       0.74795193       0.00000000      -3.25273099       8.17943409       0.00000000
