3
Lattice="15.0 0.0 0.0 0.0 15.0 0.0 0.0 0.0 15.0" Properties=species:S:1:pos:R:3:forces:R:3 energy=1.5688784001 pbc="T T T"
O        0.00000000       0.00000000       0.00000000     -16.04947217      -5.88400707       0.00000000
H        0.77898908       0.00000000       0.00000000      18.23351745       0.12294620       0.00000000
H       -0.32262852       0.80717594       0.00000000      -2.18404528       5.76106087       0.00000000
