3
Lattice="15.0 0.0 0.0 0.0 15.0 0.0 0.0 0.0 15.0" Properties=species:S:1:pos:R:3:forces:R:3 energy=0.0102723581 pbc="T T T"
O        0.00000000       0.00000000       0.00000000      -0.21013456      -0.24168649       0.00000000
H        0.94990061       0.00000000       0.00000000       0.56405685      -0.24748273       0.00000000
H       -0.19258538       0.93040434       0.00000000      -0.35392229       0.48916922       0.00000000
