3
Lattice="15.0 0.0 0.0 0.0 15.0 0.0 0.0 0.0 15.0" Properties=species:S:1:pos:R:3:forces:R:3 energy=0.0093003483 pbc="T T T"
O        0.00000000       0.00000000       0.00000000       0.49352400      -0.55810819       0.00000000
H        0.96949064       0.00000000       0.00000000      -0.61987954       0.21700162       0.00000000
H       -0.27955617       0.91030884       0.00000000       0.12635554       0.34110662       0.00000000
