3
Lattice="15.0 0.0 0.0 0.0 15.0 0.0 0.0 0.0 15.0" Properties=species:S:1:pos:R:3:forces:R:3 energy=1.5310032366 pbc="T T T"
O        0.00000000       0.00000000       0.00000000     -11.27742131      -9.11815977       0.00000000
H        0.79707265       0.00000000       0.00000000      15.05726330       0.48363229       0.00000000
H       -0.37304724       0.75018918       0.00000000      -3.77984199       8.63452748       0.00000000
