3
Lattice="15.0 0.0 0.0 0.0 15.0 0.0 0.0 0.0 15.0" Properties=species:S:1:pos:R:3:forces:R:3 energy=0.2551232529 pbc="T T T"
O        0.00000000       0.00000000       0.00000000      -3.88912030      -1.83363908       0.00000000
H        0.88748009       0.00000000       0.00000000       5.03918573      -0.77925602       0.00000000
H       -0.13446224       0.90682664       0.00000000      -1.15006543       2.61289516       0.00000000
