3
Lattice="15.0 0.0 0.0 0.0 15.0 0.0 0.0 0.0 15.0" Properties=species:S:1:pos:R:3:forces:R:3 energy=0.0438811165 pbc="T T T"
O        0.00000000       0.00000000       0.00000000      -0.20885934       0.34762406       0.00000000
H        0.96909807       0.00000000       0.00000000      -0.67504448       0.52246939       0.00000000
H       -0.34729452       0.91469535       0.00000000       0.88390383      -0.87009345       0.00000000
