3
Lattice="15.0 0.0 0.0 0.0 15.0 0.0 0.0 0.0 15.0" Properties=species:S:1:pos:R:3:forces:R:3 energy=1.2913190492 pbc="T T T"
O        0.00000000       0.00000000       0.00000000       3.34294713       3.31679602       0.00000000
H        1.18589237       0.00000000       0.00000000      -5.73739375       0.73789004       0.00000000
H       -0.39229246       1.02974980       0.00000000       2.39444662      -4.05468606       0.00000000
