3
Lattice="15.0 0.0 0.0 0.0 15.0 0.0 0.0 0.0 15.0" Properties=species:S:1:pos:R:3:forces:R:3 energy=1.2844929234 pbc="T T T"
O        0.00000000       0.00000000       0.00000000       6.55385679       4.51182301       0.00000000
H        1.19654222       0.00000000       0.00000000      -5.25034446      -0.83231302       0.00000000
H        0.11148183       1.07869805       0.00000000      -1.30351228      -3.67950999       0.00000000
