3
Lattice="15.0 0.0 0.0 0.0 15.0 0.0 0.0 0.0 15.0" Properties=species:S:1:pos:R:3:forces:R:3 energy=0.0739646588 pbc="T T T"
O        0.00000000       0.00000000       0.00000000       1.28355146      -2.69348699       0.00000000
H        0.97336663       0.00000000       0.00000000      -0.93774244       0.45197444       0.00000000
H       -0.32876232       0.85882099       0.00000000      -0.34580901       2.24151255       0.00000000
