3
Lattice="15.0 0.0 0.0 0.0 15.0 0.0 0.0 0.0 15.0" Properties=species:S:1:pos:R:3:forces:R:3 energy=0.0615691732 pbc="T T T"
O        0.00000000       0.00000000       0.00000000       0.70088089       1.61558557       0.00000000
H        0.98714700       0.00000000       0.00000000      -1.35057706       0.16589249       0.00000000
H       -0.26019010       0.96550241       0.00000000       0.64969622      -1.78147806       0.00000000
