3
Lattice="15.0 0.0 0.0 0.0 15.0 0.0 0.0 0.0 15.0" Properties=species:S:1:pos:R:3:forces:R:3 energy=0.0480005856 pbc="T T T"
O        0.00000000       0.00000000       0.00000000       2.02758849      -0.49824079       0.00000000
H        1.00275317       0.00000000       0.00000000      -2.00750770       0.08139047       0.00000000
H       -0.24014908       0.92086524       0.00000000      -0.02008079       0.41685032       0.00000000
