3
Lattice="15.0 0.0 0.0 0.0 15.0 0.0 0.0 0.0 15.0" Properties=species:S:1:pos:R:3:forces:R:3 energy=0.4850860393 pbc="T T T"
O        0.00000000       0.00000000       0.00000000      -1.12252843      -0.67597152       0.00000000
H        0.92183016       0.00000000       0.00000000       3.08189195      -2.35713799       0.00000000
H        0.12287257       0.91876516       0.00000000      -1.95936352       3.03310957       0.00000000
