3
Lattice="15.0 0.0 0.0 0.0 15.0 0.0 0.0 0.0 15.0" Properties=species:S:1:pos:R:3:forces:R:3 energy=0.0097287807 pbc="T T T"
O        0.00000000       0.00000000       0.00000000      -1.03094523       0.21649218       0.00000000
H        0.94423049       0.00000000       0.00000000       0.76083581       0.15679052       0.00000000
H       -0.27372393       0.92637565       0.00000000       0.27010943      -0.37328270       0.00000000
