3
Lattice="15.0 0.0 0.0 0.0 15.0 0.0 0.0 0.0 15.0" Properties=species:S:1:pos:R:3:forces:R:3 energy=0.0216297239 pbc="T T T"
O        0.00000000       0.00000000       0.00000000      -0.18476259      -0.43975372       0.00000000
H        0.96127896       0.00000000       0.00000000      -0.27920718       0.43600289       0.00000000
H       -0.32915617       0.90067454       0.00000000       0.46396977       0.00375083       0.00000000
