3
Lattice="15.0 0.0 0.0 0.0 15.0 0.0 0.0 0.0 15.0" Properties=species:S:1:pos:R:3:forces:R:3 energy=0.6737370545 pbc="T T T"
O        0.00000000       0.00000000       0.00000000       6.75130455      -8.30757335       0.00000000
H        1.05422797       0.00000000       0.00000000      -4.07083861       0.80183860       0.00000000
H       -0.38475071       0.76200039       0.00000000      -2.68046594       7.50573471       0.00000000
