3
Lattice="15.0 0.0 0.0 0.0 15.0 0.0 0.0 0.0 15.0" Properties=species:S:1:pos:R:3:forces:R:3 energy=0.1075618551 pbc="T T T"
O        0.00000000       0.00000000       0.00000000       1.14876851       0.57319728       0.00000000
H        0.96802359       0.00000000       0.00000000      -0.06641101      -1.05253644       0.00000000
H       -0.03335443       0.95612418       0.00000000      -1.08235750       0.47933911       0.00000000
