3
Lattice="15.0 0.0 0.0 0.0 15.0 0.0 0.0 0.0 15.0" Properties=species:S:1:pos:R:3:forces:R:3 energy=0.0495805494 pbc="T T T"
O        0.00000000       0.00000000       0.00000000      -0.88028453      -2.00007382       0.00000000
H        0.93511018       0.00000000       0.00000000       1.22999648       0.22580709       0.00000000
H       -0.29227803       0.87907973       0.00000000      -0.34971195       1.77426673       0.00000000
