3
Lattice="15.0 0.0 0.0 0.0 15.0 0.0 0.0 0.0 15.0" Properties=species:S:1:pos:R:3:forces:R:3 energy=0.6290565247 pbc="T T T"
O        0.00000000       0.00000000       0.00000000      -7.01750029      -4.71482189       0.00000000
H        0.84843042       0.00000000       0.00000000       8.20157803       0.93626128       0.00000000
H       -0.45158595       0.77021319       0.00000000      -1.18407779       3.77856060       0.00000000
