3
Lattice="15.0 0.0 0.0 0.0 15.0 0.0 0.0 0.0 15.0" Properties=species:S:1:pos:R:3:forces:R:3 energy=0.872457439 pbc="T T T"
O        0.00000000       0.00000000       0.00000000      -6.48280021      -2.86238109       0.00000000
H        0.85759144       0.00000000       0.00000000       8.44948361      -2.51649165       0.00000000
H        0.07591769       0.88970603       0.00000000      -1.96668340       5.37887274       0.00000000
