3
Lattice="15.0 0.0 0.0 0.0 15.0 0.0 0.0 0.0 15.0" Properties=species:S:1:pos:R:3:forces:R:3 energy=0.4561925243 pbc="T T T"
O        0.00000000       0.00000000       0.00000000      -1.28697308       4.77690434       0.00000000
H        0.92324503       0.00000000       0.00000000       2.67219742      -1.40704895       0.00000000
H        0.05323038       1.06728536       0.00000000      -1.38522434      -3.36985533       0.00000000
