3
Lattice="15.0 0.0 0.0 0.0 15.0 0.0 0.0 0.0 15.0" Properties=species:S:1:pos:R:3:forces:R:3 energy=0.4564405071 pbc="T T T"
O        0.00000000       0.00000000       0.00000000       4.46059206      -5.11862967       0.00000000
H        1.04687470       0.00000000       0.00000000      -3.12036961      -0.82181490       0.00000000
H       -0.05297805       0.87675774       0.00000000      -1.34022240       5.94044456       0.00000000
