3
Lattice="15.0 0.0 0.0 0.0 15.0 0.0 0.0 0.0 15.0" Properties=species:S:1:pos:R:3:forces:R:3 energy=1.2941003114 pbc="T T T"
O        0.00000000       0.00000000       0.00000000       6.51426256       5.16536838       0.00000000
H        1.16386201       0.00000000       0.00000000      -4.91726843      -0.98168910       0.00000000
H        0.15024180       1.10902984       0.00000000      -1.59699412      -4.18367929       0.00000000
