3
Lattice="15.0 0.0 0.0 0.0 15.0 0.0 0.0 0.0 15.0" Properties=species:S:1:pos:R:3:forces:R:3 energy=0.0467901388 pbc="T T T"
O        0.00000000       0.00000000       0.00000000      -0.85066562      -1.08500137       0.00000000
H        0.94732176       0.00000000       0.00000000       0.40293211       0.60168964       0.00000000
H       -0.36869176       0.87507551       0.00000000       0.44773350       0.48331173       0.00000000
