3
Lattice="15.0 0.0 0.0 0.0 15.0 0.0 0.0 0.0 15.0" Properties=species:S:1:pos:R:3:forces:R:3 energy=0.1547109936 pbc="T T T"
O        0.00000000       0.00000000       0.00000000       0.73049420       3.10626664       0.00000000
H        0.96641053       0.00000000       0.00000000      -0.02063615      -0.85911236       0.00000000
H       -0.04805233       1.01749104       0.00000000      -0.70985806      -2.24715427       0.00000000
