3
Lattice="15.0 0.0 0.0 0.0 15.0 0.0 0.0 0.0 15.0" Properties=species:S:1:pos:R:3:forces:R:3 energy=0.8355034516 pbc="T T T"
O        0.00000000       0.00000000       0.00000000      -5.27617743      -4.36293987       0.00000000
H        0.86989297       0.00000000       0.00000000       7.17749369      -2.36245252       0.00000000
H        0.05839541       0.87431469       0.00000000      -1.90131631       6.72539234       0.00000000
