3
Lattice="15.0 0.0 0.0 0.0 15.0 0.0 0.0 0.0 15.0" Properties=species:S:1:pos:R:3:forces:R:3 energy=0.0443825216 pbc="T T T"
O        0.00000000       0.00000000       0.00000000      -0.21859051      -1.28113683       0.00000000
H        0.95711365       0.00000000       0.00000000      -0.13525243       0.58642649       0.00000000
H       -0.36314648       0.87325508       0.00000000       0.35384294       0.69471034       0.00000000
