3
Lattice="15.0 0.0 0.0 0.0 15.0 0.0 0.0 0.0 15.0" Properties=species:S:1:pos:R:3:forces:R:3 energy=0.6210470491 pbc="T T T"
O        0.00000000       0.00000000       0.00000000      -6.64136680       2.70165040       0.00000000
H        0.85714850       0.00000000       0.00000000       8.30911031      -1.88451209       0.00000000
H        0.04427347       0.99025075       0.00000000      -1.66774351      -0.81713831       0.00000000
