3
Lattice="15.0 0.0 0.0 0.0 15.0 0.0 0.0 0.0 15.0" Properties=species:S:1:pos:R:3:forces:R:3 energy=1.4243120779 pbc="T T T"
O        0.00000000       0.00000000       0.00000000       5.41403588     -14.43016852       0.00000000
H        0.89589407       0.00000000       0.00000000       3.30252022       1.22887718       0.00000000
H       -0.49235842       0.61937571       0.00000000      -8.71655615      13.20129134       0.00000000
