3
Lattice="15.0 0.0 0.0 0.0 15.0 0.0 0.0 0.0 15.0" Properties=species:S:1:pos:R:3:forces:R:3 energy=0.0140597857 pbc="T T T"
O        0.00000000       0.00000000       0.00000000       1.15073278      -0.13195026       0.00000000
H        0.97848582       0.00000000       0.00000000      -0.89396929      -0.18285072       0.00000000
H       -0.19341401       0.93394788       0.00000000      -0.25676349       0.31480098       0.00000000
