3
Lattice="15.0 0.0 0.0 0.0 15.0 0.0 0.0 0.0 15.0" Properties=species:S:1:pos:R:3:forces:R:3 energy=1.249032471 pbc="T T T"
O        0.00000000       0.00000000       0.00000000       6.73067863      -6.92026076       0.00000000
H        1.19991024       0.00000000       0.00000000      -5.61393194      -0.38314469       0.00000000
H       -0.06874545       0.86126519       0.00000000      -1.11674674       7.30340545       0.00000000
