3
Lattice="15.0 0.0 0.0 0.0 15.0 0.0 0.0 0.0 15.0" Properties=species:S:1:pos:R:3:forces:R:3 energy=0.0635212309 pbc="T T T"
O        0.00000000       0.00000000       0.00000000      -1.18761342      -1.42963405       0.00000000
H        0.93966702       0.00000000       0.00000000       0.82299524       0.65074996       0.00000000
H       -0.38076076       0.86369739       0.00000000       0.36461818       0.77888414       0.00000000
