3
Lattice="15.0 0.0 0.0 0.0 15.0 0.0 0.0 0.0 15.0" Properties=species:S:1:pos:R:3:forces:R:3 energy=0.0446004631 pbc="T T T"
O        0.00000000       0.00000000       0.00000000      -1.40032269      -1.44958376       0.00000000
H        0.92811848       0.00000000       0.00000000       1.73801765       0.06617421       0.00000000
H       -0.26290690       0.89515824       0.00000000      -0.33769497       1.38340955       0.00000000
