3
Lattice="15.0 0.0 0.0 0.0 15.0 0.0 0.0 0.0 15.0" Properties=species:S:1:pos:R:3:forces:R:3 energy=0.0031129146 pbc="T T T"
O        0.00000000       0.00000000       0.00000000       0.15941346       0.35538890       0.00000000
H        0.96096270       0.00000000       0.00000000      -0.04714521      -0.15310356       0.00000000
H       -0.20487695       0.94134560       0.00000000      -0.11226820      -0.20228534       0.00000000
