3
Lattice="15.0 0.0 0.0 0.0 15.0 0.0 0.0 0.0 15.0" Properties=species:S:1:pos:R:3:forces:R:3 energy=0.5954522698 pbc="T T T"
O        0.00000000       0.00000000       0.00000000       1.56132725       3.87888345       0.00000000
H        1.04787181       0.00000000       0.00000000      -3.45074207       0.51367894       0.00000000
H       -0.33081457       1.05397358       0.00000000       1.88941482      -4.39256239       0.00000000
