3
Lattice="15.0 0.0 0.0 0.0 15.0 0.0 0.0 0.0 15.0" Properties=species:S:1:pos:R:3:forces:R:3 energy=1.231300751 pbc="T T T"
O        0.00000000       0.00000000       0.00000000       0.16449674     -11.96247196       0.00000000
H        0.86430303       0.00000000       0.00000000       6.25169613       1.14056658       0.00000000
H       -0.47986168       0.65571946       0.00000000      -6.41619287      10.82190538       0.00000000
