3
Lattice="15.0 0.0 0.0 0.0 15.0 0.0 0.0 0.0 15.0" Properties=species:S:1:pos:R:3:forces:R:3 energy=1.4398726042 pbc="T T T"
O        0.00000000       0.00000000       0.00000000       4.24194195       5.73857615       0.00000000
H        1.11949680       0.00000000       0.00000000      -4.68161756      -0.08565243       0.00000000
H       -0.11119340       1.21152998       0.00000000       0.43967561      -5.65292372       0.00000000
