3
Lattice="15.0 0.0 0.0 0.0 15.0 0.0 0.0 0.0 15.0" Properties=species:S:1:pos:R:3:forces:R:3 energy=0.4798247668 pbc="T T T"
O        0.00000000       0.00000000       0.00000000       3.41727534      -6.22331726       0.00000000
H        1.01064444       0.00000000       0.00000000      -1.88263754      -1.08793572       0.00000000
H       -0.03100140       0.86416175       0.00000000      -1.53463774       7.31125298       0.00000000
