3
Lattice="15.0 0.0 0.0 0.0 15.0 0.0 0.0 0.0 15.0" Properties=species:S:1:pos:R:3:forces:R:3 energy=0.8220940534 pbc="T T T"
O        0.00000000       0.00000000       0.00000000      -3.16749929       2.87027942       0.00000000
H        0.96905389       0.00000000       0.00000000      -0.69071130       1.33338969       0.00000000
H       -0.58808009       0.97563895       0.00000000       3.85821064      -4.20366911       0.00000000
