3
Lattice="15.0 0.0 0.0 0.0 15.0 0.0 0.0 0.0 15.0" Properties=species:S:1:pos:R:3:forces:R:3 energy=0.1693205528 pbc="T T T"
O        0.00000000       0.00000000       0.00000000       2.92706169       2.12429883       0.00000000
H        1.02933061       0.00000000       0.00000000      -2.69289857      -0.41534098       0.00000000
H       -0.11392981       0.99427225       0.00000000      -0.23416318      -1.70895785       0.00000000
