3
Lattice="15.0 0.0 0.0 0.0 15.0 0.0 0.0 0.0 15.0" Properties=species:S:1:pos:R:3:forces:R:3 energy=1.6948610247 pbc="T T T"
O        0.00000000       0.00000000       0.00000000       6.31253952      -1.78820124       0.00000000
H        1.32507635       0.00000000       0.00000000      -5.85133795      -0.27302742       0.00000000
H       -0.03249670       0.92967008       0.00000000      -0.46120157       2.06122867       0.00000000
