3
Lattice="15.0 0.0 0.0 0.0 15.0 0.0 0.0 0.0 15.0" Properties=species:S:1:pos:R:3:forces:R:3 energy=1.3389967554 pbc="T T T"
O        0.00000000       0.00000000       0.00000000     -12.04406730      -7.37596114       0.00000000
H        0.79939035       0.00000000       0.00000000      14.82928234       0.19698562       0.00000000
H       -0.32791038       0.78866162       0.00000000      -2.78521505       7.17897552       0.00000000
