3
Lattice="15.0 0.0 0.0 0.0 15.0 0.0 0.0 0.0 15.0" Properties=species:S:1:pos:R:3:forces:R:3 energy=1.4332945618 pbc="T T T"
O        0.00000000       0.00000000       0.00000000       5.94464580      -8.39251894       0.00000000
H        1.18442872       0.00000000       0.00000000      -5.14984709      -1.04582226       0.00000000
H        0.06008656       0.84497426       0.00000000      -0.79479871       9.43834125       0.00000000
