3
Lattice="15.0 0.0 0.0 0.0 15.0 0.0 0.0 0.0 15.0" Properties=species:S:1:pos:R:3:forces:R:3 energy=0.4474372364 pbc="T T T"
O        0.00000000       0.00000000       0.00000000       0.10222336       0.68528401       0.00000000
H        1.01900279       0.00000000       0.00000000      -2.93296366       1.29787806       0.00000000
H       -0.56094931       0.86019715       0.00000000       2.83074030      -1.98316207       0.00000000
