3
Lattice="15.0 0.0 0.0 0.0 15.0 0.0 0.0 0.0 15.0" Properties=species:S:1:pos:R:3:forces:R:3 energy=0.0261322995 pbc="T T T"
O        0.00000000       0.00000000       0.00000000       1.29280754       0.73871711       0.00000000
H        0.98758459       0.00000000       0.00000000      -1.29760882      -0.12064959       0.00000000
H       -0.20017428       0.95173330       0.00000000       0.00480128      -0.61806752       0.00000000
