3
Lattice="15.0 0.0 0.0 0.0 15.0 0.0 0.0 0.0 15.0" Properties=species:S:1:pos:R:3:forces:R:3 energy=0.0127594652 pbc="T T T"
O        0.00000000       0.00000000       0.00000000       0.44965499       0.34765322       0.00000000
H        0.97400186       0.00000000       0.00000000      -0.80318529       0.18869284       0.00000000
H       -0.27127024       0.93141052       0.00000000       0.35353030      -0.53634600       0.00000000
