3
Lattice="15.0 0.0 0.0 0.0 15.0 0.0 0.0 0.0 15.0" Properties=species:S:1:pos:R:3:forces:R:3 energy=0.8803116518 pbc="T T T"
O        0.00000000       0.00000000       0.00000000      -2.49647365      -7.12871577       0.00000000
H        0.90502639       0.00000000       0.00000000       4.22627580      -2.34418307       0.00000000
H        0.06935791       0.84664431       0.00000000      -1.72980210       9.47289885       0.00000000
