3
Lattice="15.0 0.0 0.0 0.0 15.0 0.0 0.0 0.0 15.0" Properties=species:S:1:pos:R:3:forces:R:3 energy=0.0229450734 pbc="T T T"
O        0.00000000       0.00000000       0.00000000      -1.29777481      -0.26404933       0.00000000
H        0.93263180       0.00000000       0.00000000       1.54983241      -0.15291833       0.00000000
H       -0.21744191       0.92551372       0.00000000      -0.25205760       0.41696767       0.00000000
