3
Lattice="15.0 0.0 0.0 0.0 15.0 0.0 0.0 0.0 15.0" Properties=species:S:1:pos:R:3:forces:R:3 energy=1.1471217297 pbc="T T T"
O        0.00000000       0.00000000       0.00000000      -8.01019469       5.25396684       0.00000000
H        0.84019062       0.00000000       0.00000000      10.35482534      -2.41165667       0.00000000
H        0.16128906       1.05973401       0.00000000      -2.34463065      -2.84231017       0.00000000
