3
Lattice="15.0 0.0 0.0 0.0 15.0 0.0 0.0 0.0 15.0" Properties=species:S:1:pos:R:3:forces:R:3 energy=0.0075123045 pbc="T T T"
O        0.00000000       0.00000000       0.00000000       0.26270233       0.25266839       0.00000000
H        0.96050333       0.00000000       0.00000000       0.01405376      -0.26840643       0.00000000
H       -0.18271089       0.94191507       0.00000000      -0.27675614       0.01573804       0.00000000
