3
Lattice="15.0 0.0 0.0 0.0 15.0 0.0 0.0 0.0 15.0" Properties=species:S:1:pos:R:3:forces:R:3 energy=1.0445963512 pbc="T T T"
O        0.00000000       0.00000000       0.00000000       5.03640791       3.67509299       0.00000000
H        1.03526234       0.00000000       0.00000000      -1.72267150      -2.80941572       0.00000000
H        0.37481660       0.97562151       0.00000000      -3.31373640      -0.86567727       0.00000000
