3
Lattice="15.0 0.0 0.0 0.0 15.0 0.0 0.0 0.0 15.0" Properties=species:S:1:pos:R:3:forces:R:3 energy=0.8350062642 pbc="T T T"
O        0.00000000       0.00000000       0.00000000      -5.55862142      -3.86609838       0.00000000
H        0.86696963       0.00000000       0.00000000       7.47395498      -2.40507192       0.00000000
H        0.06393352       0.87931750       0.00000000      -1.91533356       6.27117029       0.00000000
