3
Lattice="15.0 0.0 0.0 0.0 15.0 0.0 0.0 0.0 15.0" Properties=species:S:1:pos:R:3:forces:R:3 energy=0.0193655924 pbc="T T T"
O        0.00000000       0.00000000       0.00000000       0.43177445       0.93894397       0.00000000
H        0.97491264       0.00000000       0.00000000      -0.79916542       0.09342375       0.00000000
H       -0.24946504       0.94890639       0.00000000       0.36739097      -1.03236772       0.00000000
