3
Lattice="15.0 0.0 0.0 0.0 15.0 0.0 0.0 0.0 15.0" Properties=species:S:1:pos:R:3:forces:R:3 energy=0.0348214447 pbc="T T T"
O        0.00000000       0.00000000       0.00000000      -1.04199934      -1.27380630       0.00000000
H        0.93906596       0.00000000       0.00000000       0.95000862       0.39176812       0.00000000
H       -0.32493044       0.88373069       0.00000000       0.09199072       0.88203818       0.00000000
