3
Lattice="15.0 0.0 0.0 0.0 15.0 0.0 0.0 0.0 15.0" Properties=species:S:1:pos:R:3:forces:R:3 energy=0.410045611 pbc="T T T"
O        0.00000000       0.00000000       0.00000000      -2.50044508       3.97200191       0.00000000
H        0.94655539       0.00000000       0.00000000       0.69825903       0.45090892       0.00000000
H       -0.33103313       1.04924809       0.00000000       1.80218604      -4.42291083       0.00000000
