3
Lattice="15.0 0.0 0.0 0.0 15.0 0.0 0.0 0.0 15.0" Properties=species:S:1:pos:R:3:forces:R:3 energy=0.0289754376 pbc="T T T"
O        0.00000000       0.00000000       0.00000000      -0.66905412      -1.49562088       0.00000000
H        0.93986748       0.00000000       0.00000000       1.00466006       0.07440997       0.00000000
H       -0.26065253       0.89541523       0.00000000      -0.33560595       1.42121090       0.00000000
