3
Lattice="15.0 0.0 0.0 0.0 15.0 0.0 0.0 0.0 15.0" Properties=species:S:1:pos:R:3:forces:R:3 energy=0.0296819867 pbc="T T T"
O        0.00000000       0.00000000       0.00000000       1.01062472       1.04503232       0.00000000
H        0.98560573       0.00000000       0.00000000      -1.24330267      -0.00930750       0.00000000
H       -0.22356917       0.95575284       0.00000000       0.23267795      -1.03572482       0.00000000
