3
Lattice="15.0 0.0 0.0 0.0 15.0 0.0 0.0 0.0 15.0" Properties=species:S:1:pos:R:3:forces:R:3 energy=0.1894044115 pbc="T T T"
O        0.00000000       0.00000000       0.00000000      -3.06128871       2.66224720       0.00000000
H        0.93058791       0.00000000       0.00000000       1.59421892       0.43787970       0.00000000
H       -0.33470238       0.98502837       0.00000000       1.46706979      -3.10012689       0.00000000
