3
Lattice="15.0 0.0 0.0 0.0 15.0 0.0 0.0 0.0 15.0" Properties=species:S:1:pos:R:3:forces:R:3 energy=0.0023748901 pbc="T T T"
O        0.00000000       0.00000000       0.00000000      -0.06159070      -0.14380989       0.00000000
H        0.95503484       0.00000000       0.00000000       0.24052471      -0.11550517       0.00000000
H       -0.21586370       0.92932677       0.00000000      -0.17893406       0.25931511       0.00000000
