3
Lattice="15.0 0.0 0.0 0.0 15.0 0.0 0.0 0.0 15.0" Properties=species:S:1:pos:R:3:forces:R:3 energy=0.0424517758 pbc="T T T"
O        0.00000000       0.00000000       0.00000000      -0.84012892      -0.40439343       0.00000000
H        0.93566295       0.00000000       0.00000000       1.47227946      -0.48111086       0.00000000
H       -0.15613196       0.93081170       0.00000000      -0.63215054       0.88550429       0.00000000
