3
Lattice="15.0 0.0 0.0 0.0 15.0 0.0 0.0 0.0 15.0" Properties=species:S:1:pos:R:3:forces:R:3 energy=0.8041233276 pbc="T T T"
O        0.00000000       0.00000000       0.00000000       5.18277795      -1.50613849       0.00000000
H        1.16646856       0.00000000       0.00000000      -5.73693070       0.66996218       0.00000000
H       -0.35054386       0.88129724       0.00000000       0.55415280       0.83617631       0.00000000
