3
Lattice="15.0 0.0 0.0 0.0 15.0 0.0 0.0 0.0 15.0" Properties=species:S:1:pos:R:3:forces:R:3 energy=0.0024748701 pbc="T T T"
O        0.00000000       0.00000000       0.00000000       0.14278037      -0.16157838       0.00000000
H        0.96331943       0.00000000       0.00000000      -0.27664913       0.13523654       0.00000000
H       -0.26382806       0.92124783       0.00000000       0.13386877       0.02634184       0.00000000
