3
Lattice="15.0 0.0 0.0 0.0 15.0 0.0 0.0 0.0 15.0" Properties=species:S:1:pos:R:3:forces:R:3 energy=0.2086933031 pbc="T T T"
O        0.00000000       0.00000000       0.00000000       0.30352458       3.15382389       0.00000000
H        0.99025091       0.00000000       0.00000000      -1.44926222       0.24062950       0.00000000
H       -0.27250595       1.01532176       0.00000000       1.14573759      -3.39445340       0.00000000
