3
Lattice="15.0 0.0 0.0 0.0 15.0 0.0 0.0 0.0 15.0" Properties=species:S:1:pos:R:3:forces:R:3 energy=0.0262336183 pbc="T T T"
O        0.00000000       0.00000000       0.00000000      -0.16312017       0.07837765       0.00000000
H        0.96566398       0.00000000       0.00000000      -0.48749275       0.43875428       0.00000000
H       -0.32881008       0.91256625       0.00000000       0.65061292      -0.51713193       0.00000000
