3
Lattice="15.0 0.0 0.0 0.0 15.0 0.0 0.0 0.0 15.0" Properties=species:S:1:pos:R:3:forces:R:3 energy=1.3392954004 pbc="T T T"
O        0.00000000       0.00000000       0.00000000     -16.60794880       3.40558597       0.00000000
H        0.78780576       0.00000000       0.00000000      17.25846643      -1.12642859       0.00000000
H       -0.10103184       1.01017938       0.00000000      -0.65051764      -2.27915738       0.00000000
