3
Lattice="15.0 0.0 0.0 0.0 15.0 0.0 0.0 0.0 15.0" Properties=species:S:1:pos:R:3:forces:R:3 energy=1.0624088809 pbc="T T T"
O        0.00000000       0.00000000       0.00000000     -11.83388322       0.08671147       0.00000000
H        0.85211759       0.00000000       0.00000000       7.71781497       1.85879096       0.00000000
H       -0.74343993       0.73620564       0.00000000       4.11606824      -1.94550244       0.00000000
