3
Lattice="15.0 0.0 0.0 0.0 15.0 0.0 0.0 0.0 15.0" Properties=species:S:1:pos:R:3:forces:R:3 energy=0.0301575655 pbc="T T T"
O        0.00000000       0.00000000       0.00000000       0.98838898       1.16556589       0.00000000
H        0.98421006       0.00000000       0.00000000      -1.16007520      -0.06804525       0.00000000
H       -0.21120975       0.96010150       0.00000000       0.17168622      -1.09752064       0.00000000
