3
Lattice="15.0 0.0 0.0 0.0 15.0 0.0 0.0 0.0 15.0" Properties=species:S:1:pos:R:3:forces:R:3 energy=0.16562212 pbc="T T T"
O        0.00000000       0.00000000       0.00000000       2.61869140      -2.55299454       0.00000000
H        0.99674013       0.00000000       0.00000000      -1.48552842      -0.74346229       0.00000000
H       -0.08641739       0.90535074       0.00000000      -1.13316299       3.29645689       0.00000000
