3
Lattice="15.0 0.0 0.0 0.0 15.0 0.0 0.0 0.0 15.0" Properties=species:S:1:pos:R:3:forces:R:3 energy=0.7097612832 pbc="T T T"
O        0.00000000       0.00000000       0.00000000      -7.03752703       5.05948681       0.00000000
H        0.87145674       0.00000000       0.00000000       6.51728839      -0.30204553       0.00000000
H       -0.17548908       1.09884069       0.00000000       0.52023865      -4.75744128       0.00000000
