3
Lattice="15.0 0.0 0.0 0.0 15.0 0.0 0.0 0.0 15.0" Properties=species:S:1:pos:R:3:forces:R:3 energy=0.0028076953 pbc="T T T"
O        0.00000000       0.00000000       0.00000000       0.54977220      -0.17733832       0.00000000
H        0.96809961       0.00000000       0.00000000      -0.45559970      -0.03954950       0.00000000
H       -0.22629734       0.92775511       0.00000000      -0.09417251       0.21688782       0.00000000
