3
Lattice="15.0 0.0 0.0 0.0 15.0 0.0 0.0 0.0 15.0" Properties=species:S:1:pos:R:3:forces:R:3 energy=0.6330245461 pbc="T T T"
O        0.00000000       0.00000000       0.00000000       4.67579941       4.35492996       0.00000000
H        1.08796019       0.00000000       0.00000000      -4.01612653      -0.66351293       0.00000000
H       -0.00383947       1.07280831       0.00000000      -0.65967288      -3.69141708       0.00000000
