3
Lattice="15.0 0.0 0.0 0.0 15.0 0.0 0.0 0.0 15.0" Properties=species:S:1:pos:R:3:forces:R:3 energy=0.0953296159 pbc="T T T"
O        0.00000000       0.00000000       0.00000000      -2.68043318       1.43961312       0.00000000
H        0.91315280       0.00000000       0.00000000       3.00314658      -0.50102669       0.00000000
H       -0.15486500       0.96729709       0.00000000      -0.32271340      -0.93858643       0.00000000
