3
Lattice="15.0 0.0 0.0 0.0 15.0 0.0 0.0 0.0 15.0" Properties=species:S:1:pos:R:3:forces:R:3 energy=0.0305495836 pbc="T T T"
O        0.00000000       0.00000000       0.00000000      -0.34384248      -0.54138212       0.00000000
H        0.95921918       0.00000000       0.00000000      -0.20174659       0.51700919       0.00000000
H       -0.34766295       0.89344083       0.00000000       0.54558907       0.02437294       0.00000000
