3
Lattice="15.0 0.0 0.0 0.0 15.0 0.0 0.0 0.0 15.0" Properties=species:S:1:pos:R:3:forces:R:3 energy=0.2052983235 pbc="T T T"
O        0.00000000       0.00000000       0.00000000       3.20611918       2.27381992       0.00000000
H        1.03830453       0.00000000       0.00000000      -2.95538899      -0.42917759       0.00000000
H       -0.10576943       0.99912297       0.00000000      -0.25073019      -1.84464233       0.00000000
