3
Lattice="15.0 0.0 0.0 0.0 15.0 0.0 0.0 0.0 15.0" Properties=species:S:1:pos:R:3:forces:R:3 energy=0.8417825497 pbc="T T T"
O        0.00000000       0.00000000       0.00000000      -3.38319623       4.50040849       0.00000000
H        0.88401004       0.00000000       0.00000000       6.05848006      -2.65335730       0.00000000
H        0.21383493       1.02439918       0.00000000      -2.67528383      -1.84705120       0.00000000
