3
Lattice="15.0 0.0 0.0 0.0 15.0 0.0 0.0 0.0 15.0" Properties=species:S:1:pos:R:3:forces:R:3 energy=0.5132207266 pbc="T T T"
O        0.00000000       0.00000000       0.00000000       5.18379595      -4.88094937       0.00000000
H        1.06439633       0.00000000       0.00000000      -4.34113645       1.00090599       0.00000000
H       -0.44393001       0.77980136       0.00000000      -0.84265951       3.88004338       0.00000000
