3
Lattice="15.0 0.0 0.0 0.0 15.0 0.0 0.0 0.0 15.0" Properties=species:S:1:pos:R:3:forces:R:3 energy=0.1476528091 pbc="T T T"
O        0.00000000       0.00000000       0.00000000      -1.54972910       1.00371595       0.00000000
H        0.95929441       0.00000000       0.00000000      -0.25472538       0.86551698       0.00000000
H       -0.43384569       0.90955146       0.00000000       1.80445453      -1.86923289       0.00000000
