3
Lattice="15.0 0.0 0.0 0.0 15.0 0.0 0.0 0.0 15.0" Properties=species:S:1:pos:R:3:forces:R:3 energy=0.4915916966 pbc="T T T"
O        0.00000000       0.00000000       0.00000000      -5.10105972      -4.84825716       0.00000000
H        0.86641039       0.00000000       0.00000000       6.82360400      -0.50885765       0.00000000
H       -0.19347732       0.85766142       0.00000000      -1.72254423       5.35711482       0.00000000
