3
Lattice="15.0 0.0 0.0 0.0 15.0 0.0 0.0 0.0 15.0" Properties=species:S:1:pos:R:3:forces:R:3 energy=0.0607788674 pbc="T T T"
O        0.00000000       0.00000000       0.00000000      -0.11730185       1.45423756       0.00000000
H        0.97394388       0.00000000       0.00000000      -0.81799089       0.34897975       0.00000000
H       -0.30579961       0.95297419       0.00000000       0.93529275      -1.80321731       0.00000000
