3
Lattice="15.0 0.0 0.0 0.0 15.0 0.0 0.0 0.0 15.0" Properties=species:S:1:pos:R:3:forces:R:3 energy=0.0157338221 pbc="T T T"
O        0.00000000       0.00000000       0.00000000       1.17899349      -0.04585549       0.00000000
H        0.98401077       0.00000000       0.00000000      -1.21535687       0.03658085       0.00000000
H       -0.23621253       0.92964647       0.00000000       0.03636344       0.00927464       0.00000000
