3
Lattice="15.0 0.0 0.0 0.0 15.0 0.0 0.0 0.0 15.0" Properties=species:S:1:pos:R:3:forces:R:3 energy=0.2916947598 pbc="T T T"
O        0.00000000       0.00000000       0.00000000       3.23252740      -4.78284719       0.00000000
H        1.00465701       0.00000000       0.00000000      -1.82927391      -0.70181786       0.00000000
H       -0.09575152       0.87671347       0.00000000      -1.40325354       5.48466504       0.00000000
