3
Lattice="15.0 0.0 0.0 0.0 15.0 0.0 0.0 0.0 15.0" Properties=species:S:1:pos:R:3:forces:R:3 energy=0.0254118045 pbc="T T T"
O        0.00000000       0.00000000       0.00000000      -0.74686078       1.47572732       0.00000000
H        0.95023192       0.00000000       0.00000000       0.53470548      -0.09825177       0.00000000
H       -0.21640635       0.96501227       0.00000000       0.21215529      -1.37747549       0.00000000
