3
Lattice="15.0 0.0 0.0 0.0 15.0 0.0 0.0 0.0 15.0" Properties=species:S:1:pos:R:3:forces:R:3 energy=0.0269900432 pbc="T T T"
O        0.00000000       0.00000000       0.00000000       0.46714812       0.78832477       0.00000000
H        0.97833710       0.00000000       0.00000000      -1.00480924       0.22809105       0.00000000
H       -0.27807439       0.94072108       0.00000000       0.53766112      -1.01641582       0.00000000
