3
Lattice="15.0 0.0 0.0 0.0 15.0 0.0 0.0 0.0 15.0" Properties=species:S:1:pos:R:3:forces:R:3 energy=0.2645617208 pbc="T T T"
O        0.00000000       0.00000000       0.00000000       1.74596643       1.72617890       0.00000000
H        0.97380970       0.00000000       0.00000000      -0.07779447      -1.66118884       0.00000000
H        0.08403421       0.97300713       0.00000000      -1.66817196      -0.06499001       0.00000000
