3
Lattice="15.0 0.0 0.0 0.0 15.0 0.0 0.0 0.0 15.0" Properties=species:S:1:pos:R:3:forces:R:3 energy=0.0207010565 pbc="T T T"
O        0.00000000       0.00000000       0.00000000       0.87228634      -1.44662385       0.00000000
H        0.96937026       0.00000000       0.00000000      -0.59143911       0.09511893       0.00000000
H       -0.25501311       0.89887299       0.00000000      -0.28084723       1.35150492       0.00000000
