3
Lattice="15.0 0.0 0.0 0.0 15.0 0.0 0.0 0.0 15.0" Properties=species:S:1:pos:R:3:forces:R:3 energy=1.1186658119 pbc="T T T"
O        0.00000000       0.00000000       0.00000000       0.53801465      -8.03241310       0.00000000
H        0.97345261       0.00000000       0.00000000       0.48755528      -2.83393012       0.00000000
H        0.17616091       0.82341706       0.00000000      -1.02556988      10.86634322       0.00000000
