3
Lattice="15.0 0.0 0.0 0.0 15.0 0.0 0.0 0.0 15.0" Properties=species:S:1:pos:R:3:forces:R:3 energy=0.0315640513 pbc="T T T"
O        0.00000000       0.00000000       0.00000000       0.96536814       1.31903033       0.00000000
H        0.97981803       0.00000000       0.00000000      -0.89880199      -0.25435077       0.00000000
H       -0.17359499       0.96737470       0.00000000      -0.06656615      -1.06467956       0.00000000
