3
Lattice="15.0 0.0 0.0 0.0 15.0 0.0 0.0 0.0 15.0" Properties=species:S:1:pos:R:3:forces:R:3 energy=1.2196750754 pbc="T T T"
O        0.00000000       0.00000000       0.00000000       6.84901911      -7.43328772       0.00000000
H        1.19011440       0.00000000       0.00000000      -5.59576977      -0.30510020       0.00000000
H       -0.09143239       0.85429399       0.00000000      -1.25324935       7.73838787       0.00000000
