3
Lattice="15.0 0.0 0.0 0.0 15.0 0.0 0.0 0.0 15.0" Properties=species:S:1:pos:R:3:forces:R:3 energy=0.0347260388 pbc="T T T"
O        0.00000000       0.00000000       0.00000000      -0.48211370      -0.30960221       0.00000000
H        0.95900410       0.00000000       0.00000000      -0.19233578       0.54414982       0.00000000
H       -0.35399131       0.89683469       0.00000000       0.67444948      -0.23454761       0.00000000
