3
Lattice="15.0 0.0 0.0 0.0 15.0 0.0 0.0 0.0 15.0" Properties=species:S:1:pos:R:3:forces:R:3 energy=0.482843636 pbc="T T T"
O        0.00000000       0.00000000       0.00000000      -0.06906614      -0.68216120       0.00000000
H        0.93884241       0.00000000       0.00000000       2.04344871      -2.38920928       0.00000000
H        0.14090022       0.91691156       0.00000000      -1.97438257       3.07137048       0.00000000
