3
Lattice="15.0 0.0 0.0 0.0 15.0 0.0 0.0 0.0 15.0" Properties=species:S:1:pos:R:3:forces:R:3 energy=1.5086977315 pbc="T T T"
O        0.00000000       0.00000000       0.00000000     -13.10493689       5.10697171       0.00000000
H        0.82925545       0.00000000       0.00000000      11.06398010       0.47449382       0.00000000
H       -0.34614834       1.13941247       0.00000000       2.04095679      -5.58146553       0.00000000
