3
Lattice="15.0 0.0 0.0 0.0 15.0 0.0 0.0 0.0 15.0" Properties=species:S:1:pos:R:3:forces:R:3 energy=0.0122866973 pbc="T T T"
O        0.00000000       0.00000000       0.00000000      -0.42086922      -0.42075120       0.00000000
H        0.95463264       0.00000000       0.00000000       0.10707914       0.32777158       0.00000000
H       -0.30724709       0.90612726       0.00000000       0.31379002       0.09297962       0.00000000
