3
Lattice="15.0 0.0 0.0 0.0 15.0 0.0 0.0 0.0 15.0" Properties=species:S:1:pos:R:3:forces:R:3 energy=0.2422387106 pbc="T T T"
O        0.00000000       0.00000000       0.00000000       2.41338635       2.51112966       0.00000000
H        0.99246992       0.00000000       0.00000000      -1.00467791      -1.35243931       0.00000000
H        0.05330443       0.99667086       0.00000000      -1.40870845      -1.15869035       0.00000000
