3
Lattice="15.0 0.0 0.0 0.0 15.0 0.0 0.0 0.0 15.0" Properties=species:S:1:pos:R:3:forces:R:3 energy=0.0074557946 pbc="T T T"
O        0.00000000       0.00000000       0.00000000       0.82641460      -0.45735278       0.00000000
H        0.97370111       0.00000000       0.00000000      -0.75743192       0.03840649       0.00000000
H       -0.24076447       0.92009983       0.00000000      -0.06898268       0.41894629       0.00000000
