3
Lattice="15.0 0.0 0.0 0.0 15.0 0.0 0.0 0.0 15.0" Properties=species:S:1:pos:R:3:forces:R:3 energy=0.8691930278 pbc="T T T"
O        0.00000000       0.00000000       0.00000000       6.08465308       1.23898820       0.00000000
H        1.17958982       0.00000000       0.00000000      -5.25189659      -0.68259839       0.00000000
H        0.01914170       0.97968178       0.00000000      -0.83275649      -0.55638981       0.00000000
