3
Lattice="15.0 0.0 0.0 0.0 15.0 0.0 0.0 0.0 15.0" Properties=species:S:1:pos:R:3:forces:R:3 energy=1.3009605086 pbc="T T T"
O        0.00000000       0.00000000       0.00000000       4.78229502     -13.65875535       0.00000000
H        1.05585580       0.00000000       0.00000000      -3.19681085      -1.22148633       0.00000000
H        0.00100977       0.80397381       0.00000000      -1.58548416      14.88024168       0.00000000
