3
Lattice="15.0 0.0 0.0 0.0 15.0 0.0 0.0 0.0 15.0" Properties=species:S:1:pos:R:3:forces:R:3 energy=0.1304381734 pbc="T T T"
O        0.00000000       0.00000000       0.00000000      -0.48051910      -0.02440559       0.00000000
H        0.97321093       0.00000000       0.00000000      -1.01182542       0.92858170       0.00000000
H       -0.44637104       0.87600678       0.00000000       1.49234447      -0.90417611       0.00000000
