3
Lattice="15.0 0.0 0.0 0.0 15.0 0.0 0.0 0.0 15.0" Properties=species:S:1:pos:R:3:forces:R:3 energy=0.5300032238 pbc="T T T"
O        0.00000000       0.00000000       0.00000000       4.45294873       4.15794248       0.00000000
H        1.05719923       0.00000000       0.00000000      -3.17282909      -1.07672709       0.00000000
H        0.06862463       1.05440327       0.00000000      -1.28011960      -3.08121539       0.00000000
