3
Lattice="15.0 0.0 0.0 0.0 15.0 0.0 0.0 0.0 15.0" Properties=species:S:1:pos:R:3:forces:R:3 energy=0.0744513317 pbc="T T T"
O        0.00000000       0.00000000       0.00000000      -0.84893460       0.67386249       0.00000000
H        0.96276905       0.00000000       0.00000000      -0.38713504       0.65193216       0.00000000
H       -0.37938138       0.91470730       0.00000000       1.23606964      -1.32579465       0.00000000
