3
Lattice="15.0 0.0 0.0 0.0 15.0 0.0 0.0 0.0 15.0" Properties=species:S:1:pos:R:3:forces:R:3 energy=0.765021921 pbc="T T T"
O        0.00000000       0.00000000       0.00000000       3.26537074       5.28439010       0.00000000
H        0.99505407       0.00000000       0.00000000      -0.85842197      -1.86762857       0.00000000
H        0.21800290       1.08155826       0.00000000      -2.40694882      -3.41676153       0.00000000
