3
Lattice="15.0 0.0 0.0 0.0 15.0 0.0 0.0 0.0 15.0" Properties=species:S:1:pos:R:3:forces:R:3 energy=0.7099374008 pbc="T T T"
O        0.00000000       0.00000000       0.00000000      -0.49608616       4.04234686       0.00000000
H        1.00496555       0.00000000       0.00000000      -2.08402721       0.76766996       0.00000000
H       -0.41133433       1.06584733       0.00000000       2.58011337      -4.81001682       0.00000000
