3
Lattice="15.0 0.0 0.0 0.0 15.0 0.0 0.0 0.0 15.0" Properties=species:S:1:pos:R:3:forces:R:3 energy=1.1252875258 pbc="T T T"
O        0.00000000       0.00000000       0.00000000       1.80850289       2.85468068       0.00000000
H        1.12072666       0.00000000       0.00000000      -5.10534657       1.08782207       0.00000000
H       -0.51727577       0.98837332       0.00000000       3.29684368      -3.94250270       0.00000000
