3
Lattice="15.0 0.0 0.0 0.0 15.0 0.0 0.0 0.0 15.0" Properties=species:S:1:pos:R:3:forces:R:3 energy=0.0372356361 pbc="T T T"
O        0.00000000       0.00000000       0.00000000      -1.25554370      -1.29384364       0.00000000
H        0.93064871       0.00000000       0.00000000       1.59585070       0.01715683       0.00000000
H       -0.25246067       0.90020540       0.00000000      -0.34030700       1.27668681       0.00000000
