3
Lattice="15.0 0.0 0.0 0.0 15.0 0.0 0.0 0.0 15.0" Properties=species:S:1:pos:R:3:forces:R:3 energy=0.0229636288 pbc="T T T"
O        0.00000000       0.00000000       0.00000000       0.03786188       1.43693964       0.00000000
H        0.96465129       0.00000000       0.00000000      -0.22587656      -0.10265433       0.00000000
H       -0.21028739       0.96565699       0.00000000       0.18801468      -1.33428526       0.00000000
