3
Lattice="15.0 0.0 0.0 0.0 15.0 0.0 0.0 0.0 15.0" Properties=species:S:1:pos:R:3:forces:R:3 energy=0.8737789899 pbc="T T T"
O        0.00000000       0.00000000       0.00000000       6.03628911       0.47792506       0.00000000
H        1.18668408       0.00000000       0.00000000      -5.39045474      -0.52450982       0.00000000
H       -0.02082286       0.96525903       0.00000000      -0.64583437       0.04658471       0.00000000
