3
Lattice="15.0 0.0 0.0 0.0 15.0 0.0 0.0 0.0 15.0" Properties=species:S:1:pos:R:3:forces:R:3 energy=0.5663473986 pbc="T T T"
O        0.00000000       0.00000000       0.00000000      -1.95382253      -6.83784031       0.00000000
H        0.88590057       0.00000000       0.00000000       4.40063031       1.07903625       0.00000000
H       -0.47439393       0.72585302       0.00000000      -2.44680773       5.75880401       0.00000000
