3
Lattice="15.0 0.0 0.0 0.0 15.0 0.0 0.0 0.0 15.0" Properties=species:S:1:pos:R:3:forces:R:3 energy=0.1795614463 pbc="T T T"
O        0.00000000       0.00000000       0.00000000       1.76777994       2.74448387       0.00000000
H        1.01569598       0.00000000       0.00000000      -2.37487800       0.01961768       0.00000000
H       -0.21386754       1.00655429       0.00000000       0.60709811      -2.76410155       0.00000000
