3
Lattice="15.0 0.0 0.0 0.0 15.0 0.0 0.0 0.0 15.0" Properties=species:S:1:pos:R:3:forces:R:3 energy=0.3920096322 pbc="T T T"
O        0.00000000       0.00000000       0.00000000      -0.30150153      -2.75122109       0.00000000
H        0.95985517       0.00000000       0.00000000      -0.70435620       1.53202514       0.00000000
H       -0.61995101       0.71051851       0.00000000       1.00585773       1.21919594       0.00000000
