3
Lattice="15.0 0.0 0.0 0.0 15.0 0.0 0.0 0.0 15.0" Properties=species:S:1:pos:R:3:forces:R:3 energy=0.6997125075 pbc="T T T"
O        0.00000000       0.00000000       0.00000000       4.80059434       4.36225678       0.00000000
H        1.10372017       0.00000000       0.00000000      -4.35462271      -0.53168258       0.00000000
H       -0.02786330       1.07651782       0.00000000      -0.44597163      -3.83057420       0.00000000
