3
Lattice="15.0 0.0 0.0 0.0 15.0 0.0 0.0 0.0 15.0" Properties=species:S:1:pos:R:3:forces:R:3 energy=0.0517415035 pbc="T T T"
O        0.00000000       0.00000000       0.00000000       0.65647252      -0.08454239       0.00000000
H        0.98435482       0.00000000       0.00000000      -1.39488079       0.52524664       0.00000000
H       -0.34455870       0.90583709       0.00000000       0.73840822      -0.44070426       0.00000000
