3
Lattice="15.0 0.0 0.0 0.0 15.0 0.0 0.0 0.0 15.0" Properties=species:S:1:pos:R:3:forces:R:3 energy=0.0444856392 pbc="T T T"
O        0.00000000       0.00000000       0.00000000      -1.22495455      -1.56116866       0.00000000
H        0.93000336       0.00000000       0.00000000       1.62488181       0.03611702       0.00000000
H       -0.25663810       0.89465612       0.00000000      -0.39992726       1.52505164       0.00000000
