3
Lattice="15.0 0.0 0.0 0.0 15.0 0.0 0.0 0.0 15.0" Properties=species:S:1:pos:R:3:forces:R:3 energy=0.0662010082 pbc="T T T"
O        0.00000000       0.00000000       0.00000000       0.15990886       0.18743361       0.00000000
H        0.95092805       0.00000000       0.00000000       0.72001361      -0.81930771       0.00000000
H       -0.08606765       0.94722732       0.00000000      -0.87992242       0.63187405       0.00000000
