3
Lattice="15.0 0.0 0.0 0.0 15.0 0.0 0.0 0.0 15.0" Properties=species:S:1:pos:R:3:forces:R:3 energy=0.5282529793 pbc="T T T"
O        0.00000000       0.00000000       0.00000000      -1.63895815      -0.33039277       0.00000000
H        0.91372109       0.00000000       0.00000000       3.68178300      -2.47696632       0.00000000
H        0.13533902       0.92191515       0.00000000      -2.04282480       2.80735904       0.00000000
