3
Lattice="15.0 0.0 0.0 0.0 15.0 0.0 0.0 0.0 15.0" Properties=species:S:1:pos:R:3:forces:R:3 energy=0.5800104042 pbc="T T T"
O        0.00000000       0.00000000       0.00000000       4.34393653       4.41563178       0.00000000
H        1.07345653       0.00000000       0.00000000      -3.71264335      -0.66728674       0.00000000
H       -0.01009431       1.07472468       0.00000000      -0.63129318      -3.74834504       0.00000000
