3
Lattice="15.0 0.0 0.0 0.0 15.0 0.0 0.0 0.0 15.0" Properties=species:S:1:pos:R:3:forces:R:3 energy=0.0622802502 pbc="T T T"
O        0.00000000       0.00000000       0.00000000       0.96644641       1.57337380       0.00000000
H        0.97198950       0.00000000       0.00000000      -0.38563131      -0.67108313       0.00000000
H       -0.09384248       0.97726888       0.00000000      -0.58081510      -0.90229072       0.00000000
