3
Lattice="15.0 0.0 0.0 0.0 15.0 0.0 0.0 0.0 15.0" Properties=species:S:1:pos:R:3:forces:R:3 energy=0.0166874342 pbc="T T T"
O        0.00000000       0.00000000       0.00000000      -0.12292759      -0.35355719       0.00000000
H        0.94990905       0.00000000       0.00000000       0.59036866      -0.33013479       0.00000000
H       -0.17729928       0.93020517       0.00000000      -0.46744107       0.68369193       0.00000000
