3
Lattice="15.0 0.0 0.0 0.0 15.0 0.0 0.0 0.0 15.0" Properties=species:S:1:pos:R:3:forces:R:3 energy=0.7243113991 pbc="T T T"
O        0.00000000       0.00000000       0.00000000       3.46969471      -0.16387705       0.00000000
H        1.01711870       0.00000000       0.00000000      -1.27431816      -2.65347824       0.00000000
H        0.25114199       0.90706358       0.00000000      -2.19537660       2.81735534       0.00000000
