3
Lattice="15.0 0.0 0.0 0.0 15.0 0.0 0.0 0.0 15.0" Properties=species:S:1:pos:R:3:forces:R:3 energy=0.5512476399 pbc="T T T"
O        0.00000000       0.00000000       0.00000000       4.42187920       4.04207700       0.00000000
H        1.08278613       0.00000000       0.00000000      -3.95769413      -0.56692980       0.00000000
H       -0.03497179       1.06063644       0.00000000      -0.46418502      -3.47514720       0.00000000
