3
Lattice="15.0 0.0 0.0 0.0 15.0 0.0 0.0 0.0 15.0" Properties=species:S:1:pos:R:3:forces:R:3 energy=0.2008465544 pbc="T T T"
O        0.00000000       0.00000000       0.00000000      -1.74263829       3.46386941       0.00000000
H        0.92601551       0.00000000       0.00000000       2.26554245      -0.80171153       0.00000000
H       -0.07731878       1.02612018       0.00000000      -0.52290416      -2.66215788       0.00000000
