3
Lattice="15.0 0.0 0.0 0.0 15.0 0.0 0.0 0.0 15.0" Properties=species:S:1:pos:R:3:forces:R:3 energy=0.9261396858 pbc="T T T"
O        0.00000000       0.00000000       0.00000000       4.71746436      -3.09685331       0.00000000
H        1.12056095       0.00000000       0.00000000      -5.53284929       1.41895728       0.00000000
H       -0.59427185       0.72714336       0.00000000       0.81538492       1.67789603       0.00000000
