3
Lattice="15.0 0.0 0.0 0.0 15.0 0.0 0.0 0.0 15.0" Properties=species:S:1:pos:R:3:forces:R:3 energy=1.2247538384 pbc="T T T"
O        0.00000000       0.00000000       0.00000000     -17.08828159       0.37101196       0.00000000
H        0.80051626       0.00000000       0.00000000      14.55663148       1.38547009       0.00000000
H       -0.56803847       0.83220058       0.00000000       2.53165011      -1.75648204       0.00000000
