3
Lattice="15.0 0.0 0.0 0.0 15.0 0.0 0.0 0.0 15.0" Properties=species:S:1:pos:R:3:forces:R:3 energy=0.035639623 pbc="T T T"
O        0.00000000       0.00000000       0.00000000      -0.23108171       1.74085795       0.00000000
H        0.96236091       0.00000000       0.00000000      -0.12252413      -0.03825608       0.00000000
H       -0.22347633       0.97191569       0.00000000       0.35360584      -1.70260182       0.00000000
