3
Lattice="15.0 0.0 0.0 0.0 15.0 0.0 0.0 0.0 15.0" Properties=species:S:1:pos:R:3:forces:R:3 energy=0.3858882976 pbc="T T T"
O        0.00000000       0.00000000       0.00000000       0.47713449      -0.07228171       0.00000000
H        1.01628422       0.00000000       0.00000000      -2.88650746       1.30190086       0.00000000
H       -0.55701481       0.83341905       0.00000000       2.40937296      -1.22961915       0.00000000
