3
Lattice="15.0 0.0 0.0 0.0 15.0 0.0 0.0 0.0 15.0" Properties=species:S:1:pos:R:3:forces:R:3 energy=0.0044986843 pbc="T T T"
O        0.00000000       0.00000000       0.00000000       0.32994355       0.30439804       0.00000000
H        0.96341833       0.00000000       0.00000000      -0.16122902      -0.18855456       0.00000000
H       -0.19702942       0.94142619       0.00000000      -0.16871458      -0.11584352       0.00000000
