3
Lattice="15.0 0.0 0.0 0.0 15.0 0.0 0.0 0.0 15.0" Properties=species:S:1:pos:R:3:forces:R:3 energy=0.0071876318 pbc="T T T"
O        0.00000000       0.00000000       0.00000000       0.20336299      -0.82358819       0.00000000
H        0.95771747       0.00000000       0.00000000       0.05823778      -0.04120200       0.00000000
H       -0.23088672       0.91409685       0.00000000      -0.26160077       0.86479013       0.00000000
