3
Lattice="15.0 0.0 0.0 0.0 15.0 0.0 0.0 0.0 15.0" Properties=species:S:1:pos:R:3:forces:R:3 energy=1.4637536975 pbc="T T T"
O        0.00000000       0.00000000       0.00000000      -3.09554482       6.33395039       0.00000000
H        0.91332689       0.00000000       0.00000000       3.21497704      -0.48311468       0.00000000
H       -0.04934175       1.27730273       0.00000000      -0.11943222      -5.85083571       0.00000000
