3
Lattice="15.0 0.0 0.0 0.0 15.0 0.0 0.0 0.0 15.0" Properties=species:S:1:pos:R:3:forces:R:3 energy=0.4909974353 pbc="T T T"
O        0.00000000       0.00000000       0.00000000       0.13942410       4.90759388       0.00000000
H        0.94283654       0.00000000       0.00000000       1.50785095      -1.53383983       0.00000000
H        0.09434973       1.07114655       0.00000000      -1.64727510      -3.37375400       0.00000000
