3
Lattice="15.0 0.0 0.0 0.0 15.0 0.0 0.0 0.0 15.0" Properties=species:S:1:pos:R:3:forces:R:3 energy=0.9340436682 pbc="T T T"
O        0.00000000       0.00000000       0.00000000      -2.50404185      -7.57645771       0.00000000
H        0.90576857       0.00000000       0.00000000       4.19865628      -2.40745214       0.00000000
H        0.07551427       0.84188284       0.00000000      -1.69461443       9.98390986       0.00000000
