3
Lattice="15.0 0.0 0.0 0.0 15.0 0.0 0.0 0.0 15.0" Properties=species:S:1:pos:R:3:forces:R:3 energy=0.0050875496 pbc="T T T"
O        0.00000000       0.00000000       0.00000000      -0.01182518      -0.35343198       0.00000000
H        0.96056347       0.00000000       0.00000000      -0.16545010       0.21042093       0.00000000
H       -0.28063174       0.91377227       0.00000000       0.17727528       0.14301105       0.00000000
