3
Lattice="15.0 0.0 0.0 0.0 15.0 0.0 0.0 0.0 15.0" Properties=species:S:1:pos:R:3:forces:R:3 energy=0.4723298748 pbc="T T T"
O        0.00000000       0.00000000       0.00000000       3.15556335       3.33431655       0.00000000
H        0.99893157       0.00000000       0.00000000      -1.00180125      -1.92235103       0.00000000
H        0.17301654       1.00502769       0.00000000      -2.15376210      -1.41196552       0.00000000
