3
Lattice="15.0 0.0 0.0 0.0 15.0 0.0 0.0 0.0 15.0" Properties=species:S:1:pos:R:3:forces:R:3 energy=0.0251893188 pbc="T T T"
O        0.00000000       0.00000000       0.00000000      -0.56145926      -0.86533742       0.00000000
H        0.94111087       0.00000000       0.00000000       1.05504250      -0.24746160       0.00000000
H       -0.19779750       0.91777363       0.00000000      -0.49358324       1.11279902       0.00000000
