3
Lattice="15.0 0.0 0.0 0.0 15.0 0.0 0.0 0.0 15.0" Properties=species:S:1:pos:R:3:forces:R:3 energy=0.5085416417 pbc="T T T"
O        0.00000000       0.00000000       0.00000000       4.70125129      -5.95751572       0.00000000
H        1.05107233       0.00000000       0.00000000      -3.28169936      -0.72943938       0.00000000
H       -0.06940566       0.86703846       0.00000000      -1.41955187       6.68695510       0.00000000
