3
Lattice="15.0 0.0 0.0 0.0 15.0 0.0 0.0 0.0 15.0" Properties=species:S:1:pos:R:3:forces:R:3 energy=1.5414296029 pbc="T T T"
O        0.00000000       0.00000000       0.00000000      -3.79622846     -15.26156947       0.00000000
H        0.86061281       0.00000000       0.00000000       7.55514835      -1.19345235       0.00000000
H       -0.11604785       0.78125376       0.00000000      -3.75891989      16.45502187       0.00000000
