3
Lattice="15.0 0.0 0.0 0.0 15.0 0.0 0.0 0.0 15.0" Properties=species:S:1:pos:R:3:forces:R:3 energy=0.0523472753 pbc="T T T"
O        0.00000000       0.00000000       0.00000000       0.32907514       1.79788813       0.00000000
H        0.97717398       0.00000000       0.00000000      -0.87455591       0.07662045       0.00000000
H       -0.24296024       0.97217470       0.00000000       0.54548077      -1.87450864       0.00000000
