3
Lattice="15.0 0.0 0.0 0.0 15.0 0.0 0.0 0.0 15.0" Properties=species:S:1:pos:R:3:forces:R:3 energy=0.0731978147 pbc="T T T"
O        0.00000000       0.00000000       0.00000000      -0.47007743      -1.01843419       0.00000000
H        0.95876271       0.00000000       0.00000000      -0.27813050       0.77702955       0.00000000
H       -0.40754039       0.86420472       0.00000000       0.74820798       0.24140464       0.00000000
