3
Lattice="15.0 0.0 0.0 0.0 15.0 0.0 0.0 0.0 15.0" Properties=species:S:1:pos:R:3:forces:R:3 energy=0.0057498965 pbc="T T T"
O        0.00000000       0.00000000       0.00000000       0.41196852       0.46671880       0.00000000
H        0.96596193       0.00000000       0.00000000      -0.28816763      -0.17972467       0.00000000
H       -0.19729749       0.94493613       0.00000000      -0.12380089      -0.28699418       0.00000000
