3
Lattice="15.0 0.0 0.0 0.0 15.0 0.0 0.0 0.0 15.0" Properties=species:S:1:pos:R:3:forces:R:3 energy=0.0074554871 pbc="T T T"
O        0.00000000       0.00000000       0.00000000      -0.47236052      -0.48637849       0.00000000
H        0.95125317       0.00000000       0.00000000       0.32509285       0.22060343       0.00000000
H       -0.28561148       0.90950952       0.00000000       0.14726766       0.26577501       0.00000000
