3
Lattice="15.0 0.0 0.0 0.0 15.0 0.0 0.0 0.0 15.0" Properties=species:S:1:pos:R:3:forces:R:3 energy=0.0226142373 pbc="T T T"
O        0.00000000       0.00000000       0.00000000      -0.26813605      -0.36005087       0.00000000
H        0.96046699       0.00000000       0.00000000      -0.23820495       0.44579191       0.00000000
H       -0.33153207       0.90175261       0.00000000       0.50634095      -0.08574103       0.00000000
