3
Lattice="15.0 0.0 0.0 0.0 15.0 0.0 0.0 0.0 15.0" Properties=species:S:1:pos:R:3:forces:R:3 energy=0.4934776634 pbc="T T T"
O        0.00000000       0.00000000       0.00000000       4.57287276      -5.78808015       0.00000000
H        1.04755127       0.00000000       0.00000000      -3.16552936      -0.77582350       0.00000000
H       -0.06251855       0.86907048       0.00000000      -1.40734340       6.56390364       0.00000000
