3
Lattice="15.0 0.0 0.0 0.0 15.0 0.0 0.0 0.0 15.0" Properties=species:S:1:pos:R:3:forces:R:3 energy=0.8545269017 pbc="T T T"
O        0.00000000       0.00000000       0.00000000       2.12994020       1.96119204       0.00000000
H        1.11126967       0.00000000       0.00000000      -5.03014773       1.07798457       0.00000000
H       -0.50175642       0.93884935       0.00000000       2.90020748      -3.03917660       0.00000000
