3
Lattice="15.0 0.0 0.0 0.0 15.0 0.0 0.0 0.0 15.0" Properties=species:S:1:pos:R:3:forces:R:3 energy=0.1335030925 pbc="T T T"
O        0.00000000       0.00000000       0.00000000      -1.79367872      -2.75384418       0.00000000
H        0.92050787       0.00000000       0.00000000       1.99771452       0.69254553       0.00000000
H       -0.39178694       0.83365887       0.00000000      -0.20403580       2.06129865       0.00000000
