3
Lattice="15.0 0.0 0.0 0.0 15.0 0.0 0.0 0.0 15.0" Properties=species:S:1:pos:R:3:forces:R:3 energy=0.056650307 pbc="T T T"
O        0.00000000       0.00000000       0.00000000       1.69452928      -0.86496353       0.00000000
H        0.98220914       0.00000000       0.00000000      -0.94543663      -0.52683939       0.00000000
H       -0.12756037       0.92779626       0.00000000      -0.74909265       1.39180292       0.00000000
