3
Lattice="15.0 0.0 0.0 0.0 15.0 0.0 0.0 0.0 15.0" Properties=species:S:1:pos:R:3:forces:R:3 energy=0.0105372746 pbc="T T T"
O        0.00000000       0.00000000       0.00000000      -0.29368003      -0.20662613       0.00000000
H        0.94858045       0.00000000       0.00000000       0.63759090      -0.24533411       0.00000000
H       -0.19343422       0.93089148       0.00000000      -0.34391092       0.45196025       0.00000000
