3
Lattice="15.0 0.0 0.0 0.0 15.0 0.0 0.0 0.0 15.0" Properties=species:S:1:pos:R:3:forces:R:3 energy=1.578850339 pbc="T T T"
O        0.00000000       0.00000000       0.00000000      -0.46375925       1.38439943       0.00000000
H        1.08528385       0.00000000       0.00000000      -4.63334863       1.71450609       0.00000000
H       -0.78687703       0.84345543       0.00000000       5.09710788      -3.09890552       0.00000000
