3
Lattice="15.0 0.0 0.0 0.0 15.0 0.0 0.0 0.0 15.0" Properties=species:S:1:pos:R:3:forces:R:3 energy=0.0324591862 pbc="T T T"
O        0.00000000       0.00000000       0.00000000      -0.14035438      -1.84979806       0.00000000
H        0.94710355       0.00000000       0.00000000       0.57652650       0.07484685       0.00000000
H       -0.25867895       0.89014128       0.00000000      -0.43617212       1.77495121       0.00000000
