3
Lattice="15.0 0.0 0.0 0.0 15.0 0.0 0.0 0.0 15.0" Properties=species:S:1:pos:R:3:forces:R:3 energy=0.0247407473 pbc="T T T"
O        0.00000000       0.00000000       0.00000000       0.82376996      -0.76999423       0.00000000
H        0.96592159       0.00000000       0.00000000      -0.24622922      -0.35870228       0.00000000
H       -0.16624882       0.92482258       0.00000000      -0.57754080       1.12869651       0.00000000
