3
Lattice="15.0 0.0 0.0 0.0 15.0 0.0 0.0 0.0 15.0" Properties=species:S:1:pos:R:3:forces:R:3 energy=0.4312527911 pbc="T T T"
O        0.00000000       0.00000000       0.00000000      -2.01641941       4.62790591       0.00000000
H        0.91452192       0.00000000       0.00000000       3.23416679      -1.31553877       0.00000000
H        0.02730523       1.06223510       0.00000000      -1.21774738      -3.31236714       0.00000000
