3
Lattice="15.0 0.0 0.0 0.0 15.0 0.0 0.0 0.0 15.0" Properties=species:S:1:pos:R:3:forces:R:3 energy=1.7220007522 pbc="T T T"
O        0.00000000       0.00000000       0.00000000     -14.69938881       2.67809528       0.00000000
H        0.79100607       0.00000000       0.00000000      17.32409737      -3.34048869       0.00000000
H        0.17190384       0.96333699       0.00000000      -2.62470856       0.66239336       0.00000000
