3
Lattice="15.0 0.0 0.0 0.0 15.0 0.0 0.0 0.0 15.0" Properties=species:S:1:pos:R:3:forces:R:3 energy=0.0109449664 pbc="T T T"
O        0.00000000       0.00000000       0.00000000       0.53455877      -0.94929442       0.00000000
H        0.96693455       0.00000000       0.00000000      -0.48970524       0.17562854       0.00000000
H       -0.27192433       0.90421608       0.00000000      -0.04485353       0.77366587       0.00000000
