3
Lattice="15.0 0.0 0.0 0.0 15.0 0.0 0.0 0.0 15.0" Properties=species:S:1:pos:R:3:forces:R:3 energy=1.2582909819 pbc="T T T"
O        0.00000000       0.00000000       0.00000000     -13.55194087       4.26367046       0.00000000
H        0.82833437       0.00000000       0.00000000      11.06570963       0.71929252       0.00000000
H       -0.41064936       1.06267882       0.00000000       2.48623129      -4.98296298       0.00000000
