3
Lattice="15.0 0.0 0.0 0.0 15.0 0.0 0.0 0.0 15.0" Properties=species:S:1:pos:R:3:forces:R:3 energy=0.4343281947 pbc="T T T"
O        0.00000000       0.00000000       0.00000000      -0.22616365      -1.87683914       0.00000000
H        0.93731386       0.00000000       0.00000000       2.00554523      -2.11247314       0.00000000
H        0.09233413       0.90576450       0.00000000      -1.77938158       3.98931228       0.00000000
