3
Lattice="15.0 0.0 0.0 0.0 15.0 0.0 0.0 0.0 15.0" Properties=species:S:1:pos:R:3:forces:R:3 energy=0.8733276891 pbc="T T T"
O        0.00000000       0.00000000       0.00000000      -6.21625546      -7.93229974       0.00000000
H        0.84154067       0.00000000       0.00000000       9.13854004       0.31506154       0.00000000
H       -0.33462764       0.78151230       0.00000000      -2.92228458       7.61723820       0.00000000
