3
Lattice="15.0 0.0 0.0 0.0 15.0 0.0 0.0 0.0 15.0" Properties=species:S:1:pos:R:3:forces:R:3 energy=1.6189648881 pbc="T T T"
O        0.00000000       0.00000000       0.00000000       6.55834882     -17.85271093       0.00000000
H        1.05883573       0.00000000       0.00000000      -3.56514485      -0.70123519       0.00000000
H       -0.08489082       0.77427155       0.00000000      -2.99320397      18.55394617       0.00000000
