3
Lattice="15.0 0.0 0.0 0.0 15.0 0.0 0.0 0.0 15.0" Properties=species:S:1:pos:R:3:forces:R:3 energy=0.3621955071 pbc="T T T"
O        0.00000000       0.00000000       0.00000000       2.28505899       2.05197141       0.00000000
H        0.98212569       0.00000000       0.00000000      -0.33237072      -1.91831270       0.00000000
H        0.13692707       0.97420861       0.00000000      -1.95268821      -0.13365865       0.00000000
