3
Lattice="15.0 0.0 0.0 0.0 15.0 0.0 0.0 0.0 15.0" Properties=species:S:1:pos:R:3:forces:R:3 energy=0.2507978235 pbc="T T T"
O        0.00000000       0.00000000       0.00000000      -4.73870261       0.90723650       0.00000000
H        0.91172735       0.00000000       0.00000000       2.64881786       1.02591857       0.00000000
H       -0.47853922       0.89021585       0.00000000       2.08988476      -1.93315507       0.00000000
