3
Lattice="15.0 0.0 0.0 0.0 15.0 0.0 0.0 0.0 15.0" Properties=species:S:1:pos:R:3:forces:R:3 energy=0.1121732761 pbc="T T T"
O        0.00000000       0.00000000       0.00000000      -2.47385739      -1.17163170       0.00000000
H        0.92420947       0.00000000       0.00000000       1.75069001       0.82605125       0.00000000
H       -0.42361360       0.85326274       0.00000000       0.72316738       0.34558044       0.00000000
