3
Lattice="15.0 0.0 0.0 0.0 15.0 0.0 0.0 0.0 15.0" Properties=species:S:1:pos:R:3:forces:R:3 energy=1.1440910589 pbc="T T T"
O        0.00000000       0.00000000       0.00000000     -14.20219909      -1.79717938       0.00000000
H        0.79754786       0.00000000       0.00000000      15.58957575      -1.07042223       0.00000000
H       -0.13858082       0.90177932       0.00000000      -1.38737666       2.86760166       0.00000000
