3
Lattice="15.0 0.0 0.0 0.0 15.0 0.0 0.0 0.0 15.0" Properties=species:S:1:pos:R:3:forces:R:3 energy=0.1867197062 pbc="T T T"
O        0.00000000       0.00000000       0.00000000       2.17068274       2.49213650       0.00000000
H        1.02626976       0.00000000       0.00000000      -2.73939529       0.02899990       0.00000000
H       -0.21356763       0.99908967       0.00000000       0.56871255      -2.52113640       0.00000000
