3
Lattice="15.0 0.0 0.0 0.0 15.0 0.0 0.0 0.0 15.0" Properties=species:S:1:pos:R:3:forces:R:3 energy=0.0063678508 pbc="T T T"
O        0.00000000       0.00000000       0.00000000       0.24764245      -0.78991402       0.00000000
H        0.95894277       0.00000000       0.00000000      -0.00986420      -0.02799758       0.00000000
H       -0.23300590       0.91440786       0.00000000      -0.23777825       0.81791160       0.00000000
