3
Lattice="15.0 0.0 0.0 0.0 15.0 0.0 0.0 0.0 15.0" Properties=species:S:1:pos:R:3:forces:R:3 energy=0.0196433826 pbc="T T T"
O        0.00000000       0.00000000       0.00000000       0.89451447       0.77808632       0.00000000
H        0.97465219       0.00000000       0.00000000      -0.65246474      -0.31582181       0.00000000
H       -0.16557325       0.95549698       0.00000000      -0.24204973      -0.46226451       0.00000000
