3
Lattice="15.0 0.0 0.0 0.0 15.0 0.0 0.0 0.0 15.0" Properties=species:S:1:pos:R:3:forces:R:3 energy=0.0743470686 pbc="T T T"
O        0.00000000       0.00000000       0.00000000      -1.10938433      -0.90738536       0.00000000
H        0.92873858       0.00000000       0.00000000       1.93765867      -0.59491987       0.00000000
H       -0.14115895       0.92311067       0.00000000      -0.82827433       1.50230523       0.00000000
