3
Lattice="15.0 0.0 0.0 0.0 15.0 0.0 0.0 0.0 15.0" Properties=species:S:1:pos:R:3:forces:R:3 energy=0.05412361 pbc="T T T"
O        0.00000000       0.00000000       0.00000000      -1.96686075       0.41920258       0.00000000
H        0.92175190       0.00000000       0.00000000       2.35229609      -0.39860926       0.00000000
H       -0.17421144       0.94394887       0.00000000      -0.38543534      -0.02059336       0.00000000
