3
Lattice="15.0 0.0 0.0 0.0 15.0 0.0 0.0 0.0 15.0" Properties=species:S:1:pos:R:3:forces:R:3 energy=0.0565702511 pbc="T T T"
O        0.00000000       0.00000000       0.00000000       1.27707819       1.73801694       0.00000000
H        0.98522873       0.00000000       0.00000000      -1.08171040      -0.38870414       0.00000000
H       -0.14189627       0.98020276       0.00000000      -0.19536778      -1.34931285       0.00000000
