3
Lattice="15.0 0.0 0.0 0.0 15.0 0.0 0.0 0.0 15.0" Properties=species:S:1:pos:R:3:forces:R:3 energy=1.1086529008 pbc="T T T"
O        0.00000000       0.00000000       0.00000000       5.30304727      -5.32053803       0.00000000
H        1.13390290       0.00000000       0.00000000      -4.32681987      -1.60530229       0.00000000
H        0.14108813       0.86363384       0.00000000      -0.97622740       6.92584032       0.00000000
