3
Lattice="15.0 0.0 0.0 0.0 15.0 0.0 0.0 0.0 15.0" Properties=species:S:1:pos:R:3:forces:R:3 energy=0.0934757287 pbc="T T T"
O        0.00000000       0.00000000       0.00000000      -3.35770131       0.91470432       0.00000000
H        0.90597359       0.00000000       0.00000000       3.43389403      -0.23617692       0.00000000
H       -0.20870437       0.94967638       0.00000000      -0.07619272      -0.67852740       0.00000000
