3
Lattice="15.0 0.0 0.0 0.0 15.0 0.0 0.0 0.0 15.0" Properties=species:S:1:pos:R:3:forces:R:3 energy=0.0998618954 pbc="T T T"
O        0.00000000       0.00000000       0.00000000       1.48327700      -1.91951669       0.00000000
H        0.99002499       0.00000000       0.00000000      -1.75146767       0.70281683       0.00000000
H       -0.38332995       0.85539427       0.00000000       0.26819061       1.21669986       0.00000000
