3
Lattice="15.0 0.0 0.0 0.0 15.0 0.0 0.0 0.0 15.0" Properties=species:S:1:pos:R:3:forces:R:3 energy=0.9505024941 pbc="T T T"
O        0.00000000       0.00000000       0.00000000       5.70927816       0.20816967       0.00000000
H        1.20778456       0.00000000       0.00000000      -5.76562664       0.01576262       0.00000000
H       -0.15542990       0.95554596       0.00000000       0.05634853      -0.22393224       0.00000000
