3
Lattice="15.0 0.0 0.0 0.0 15.0 0.0 0.0 0.0 15.0" Properties=species:S:1:pos:R:3:forces:R:3 energy=0.9334935928 pbc="T T T"
O        0.00000000       0.00000000       0.00000000       6.12288679       4.38260095       0.00000000
H        1.10993844       0.00000000       0.00000000      -4.04220787      -1.44621628       0.00000000
H        0.19856104       1.05170606       0.00000000      -2.08067892      -2.93638467       0.00000000
