3
Lattice="15.0 0.0 0.0 0.0 15.0 0.0 0.0 0.0 15.0" Properties=species:S:1:pos:R:3:forces:R:3 energy=0.143657998 pbc="T T T"
O        0.00000000       0.00000000       0.00000000      -1.87537999      -2.79112288       0.00000000
H        0.91950386       0.00000000       0.00000000       2.04813069       0.74166000       0.00000000
H       -0.40260240       0.82870539       0.00000000      -0.17275070       2.04946288       0.00000000
