3
Lattice="15.0 0.0 0.0 0.0 15.0 0.0 0.0 0.0 15.0" Properties=species:S:1:pos:R:3:forces:R:3 energy=0.0111675773 pbc="T T T"
O        0.00000000       0.00000000       0.00000000      -0.95808482       0.27093172       0.00000000
H        0.94068546       0.00000000       0.00000000       1.06597232      -0.13796783       0.00000000
H       -0.21585807       0.93693004       0.00000000      -0.10788750      -0.13296384       0.00000000
