3
Lattice="15.0 0.0 0.0 0.0 15.0 0.0 0.0 0.0 15.0" Properties=species:S:1:pos:R:3:forces:R:3 energy=0.097417551 pbc="T T T"
O        0.00000000       0.00000000       0.00000000       2.57054994      -1.20066656       0.00000000
H        1.01731482       0.00000000       0.00000000      -2.63021628       0.30422140       0.00000000
H       -0.28541612       0.89881560       0.00000000       0.05966633       0.89644521       0.00000000
