3
Lattice="15.0 0.0 0.0 0.0 15.0 0.0 0.0 0.0 15.0" Properties=species:S:1:pos:R:3:forces:R:3 energy=0.0620030478 pbc="T T T"
O        0.00000000       0.00000000       0.00000000       0.60611780      -1.55614390       0.00000000
H        0.95669426       0.00000000       0.00000000       0.28168367      -0.54344986       0.00000000
H       -0.13894207       0.91421032       0.00000000      -0.88780147       2.09959376       0.00000000
