3
Lattice="15.0 0.0 0.0 0.0 15.0 0.0 0.0 0.0 15.0" Properties=species:S:1:pos:R:3:forces:R:3 energy=1.8067635393 pbc="T T T"
O        0.00000000       0.00000000       0.00000000      -0.00431143     -19.66998982       0.00000000
H        0.90055983       0.00000000       0.00000000       4.02002315      -1.24315560       0.00000000
H       -0.09235147       0.75973970       0.00000000      -4.01571171      20.91314542       0.00000000
