3
Lattice="15.0 0.0 0.0 0.0 15.0 0.0 0.0 0.0 15.0" Properties=species:S:1:pos:R:3:forces:R:3 energy=0.167300238 pbc="T T T"
O        0.00000000       0.00000000       0.00000000       0.10942790      -0.23854470       0.00000000
H        0.98697836       0.00000000       0.00000000      -1.66628739       1.00311766       0.00000000
H       -0.46485021       0.86421885       0.00000000       1.55685954      -0.76457296       0.00000000
