3
Lattice="15.0 0.0 0.0 0.0 15.0 0.0 0.0 0.0 15.0" Properties=species:S:1:pos:R:3:forces:R:3 energy=0.0672223957 pbc="T T T"
O        0.00000000       0.00000000       0.00000000       1.75928274      -0.80950105       0.00000000
H        0.98289726       0.00000000       0.00000000      -0.94138611      -0.61319909       0.00000000
H       -0.11099976       0.92998431       0.00000000      -0.81789663       1.42270014       0.00000000
