3
Lattice="15.0 0.0 0.0 0.0 15.0 0.0 0.0 0.0 15.0" Properties=species:S:1:pos:R:3:forces:R:3 energy=0.0110032505 pbc="T T T"
O        0.00000000       0.00000000       0.00000000       0.69847624       0.40061940       0.00000000
H        0.97686361       0.00000000       0.00000000      -0.89597650       0.07113037       0.00000000
H       -0.24511483       0.93730261       0.00000000       0.19750026      -0.47174973       0.00000000
