3
Lattice="15.0 0.0 0.0 0.0 15.0 0.0 0.0 0.0 15.0" Properties=species:S:1:pos:R:3:forces:R:3 energy=0.147220461 pbc="T T T"
O        0.00000000       0.00000000       0.00000000       1.16118797      -3.89448944       0.00000000
H        0.95844838       0.00000000       0.00000000       0.10580321      -0.40811561       0.00000000
H       -0.16752710       0.87763890       0.00000000      -1.26699113       4.30260510       0.00000000
