3
Lattice="15.0 0.0 0.0 0.0 15.0 0.0 0.0 0.0 15.0" Properties=species:S:1:pos:R:3:forces:R:3 energy=0.936184554 pbc="T T T"
O        0.00000000       0.00000000       0.00000000       1.32949329       1.52633184       0.00000000
H        1.09629652       0.00000000       0.00000000      -4.84331781       1.32667603       0.00000000
H       -0.59139984       0.89409663       0.00000000       3.51382453      -2.85300787       0.00000000
