3
Lattice="15.0 0.0 0.0 0.0 15.0 0.0 0.0 0.0 15.0" Properties=species:S:1:pos:R:3:forces:R:3 energy=0.1928463933 pbc="T T T"
O        0.00000000       0.00000000       0.00000000      -4.98660207       2.09363224       0.00000000
H        0.89647898       0.00000000       0.00000000       4.07570473       0.21847898       0.00000000
H       -0.29666907       0.96804949       0.00000000       0.91089734      -2.31211122       0.00000000
