3
Lattice="15.0 0.0 0.0 0.0 15.0 0.0 0.0 0.0 15.0" Properties=species:S:1:pos:R:3:forces:R:3 energy=0.2533607361 pbc="T T T"
O        0.00000000       0.00000000       0.00000000      -3.71639896      -0.15754010       0.00000000
H        0.92415772       0.00000000       0.00000000       1.66769080       1.23504881       0.00000000
H       -0.53137480       0.83659590       0.00000000       2.04870816      -1.07750871       0.00000000
