3
Lattice="15.0 0.0 0.0 0.0 15.0 0.0 0.0 0.0 15.0" Properties=species:S:1:pos:R:3:forces:R:3 energy=1.4995438212 pbc="T T T"
O        0.00000000       0.00000000       0.00000000       7.16606024      -5.23025828       0.00000000
H        1.20363613       0.00000000       0.00000000      -6.35719353       1.35795660       0.00000000
H       -0.56824180       0.69964318       0.00000000      -0.80886671       3.87230168       0.00000000
