3
Lattice="15.0 0.0 0.0 0.0 15.0 0.0 0.0 0.0 15.0" Properties=species:S:1:pos:R:3:forces:R:3 energy=1.558240136 pbc="T T T"
O        0.00000000       0.00000000       0.00000000       6.42462568       5.96067627       0.00000000
H        1.12984396       0.00000000       0.00000000      -4.45113287      -1.12800638       0.00000000
H        0.21647716       1.17590182       0.00000000      -1.97349281      -4.83266995       0.00000000
