3
Lattice="15.0 0.0 0.0 0.0 15.0 0.0 0.0 0.0 15.0" Properties=species:S:1:pos:R:3:forces:R:3 energy=0.0151288694 pbc="T T T"
O        0.00000000       0.00000000       0.00000000      -1.08933090       0.87568833       0.00000000
H        0.94245602       0.00000000       0.00000000       0.95003613      -0.05853181       0.00000000
H       -0.22917747       0.94842208       0.00000000       0.13929477      -0.81715652       0.00000000
