3
Lattice="15.0 0.0 0.0 0.0 15.0 0.0 0.0 0.0 15.0" Properties=species:S:1:pos:R:3:forces:R:3 energy=1.4300119516 pbc="T T T"
O        0.00000000       0.00000000       0.00000000       0.81191872       5.77013276       0.00000000
H        1.00605772       0.00000000       0.00000000      -1.83938242       0.12712059       0.00000000
H       -0.19899137       1.26660744       0.00000000       1.02746370      -5.89725335       0.00000000
