3
Lattice="15.0 0.0 0.0 0.0 15.0 0.0 0.0 0.0 15.0" Properties=species:S:1:pos:R:3:forces:R:3 energy=0.0100354014 pbc="T T T"
O        0.00000000       0.00000000       0.00000000      -1.07963203       0.25443335       0.00000000
H        0.94316637       0.00000000       0.00000000       0.83107997       0.13373867       0.00000000
H       -0.26925220       0.92799066       0.00000000       0.24855205      -0.38817202       0.00000000
