3
Lattice="15.0 0.0 0.0 0.0 15.0 0.0 0.0 0.0 15.0" Properties=species:S:1:pos:R:3:forces:R:3 energy=0.0058787261 pbc="T T T"
O        0.00000000       0.00000000       0.00000000      -0.35689536      -0.56492043       0.00000000
H        0.94902488       0.00000000       0.00000000       0.52747800      -0.01853885       0.00000000
H       -0.23801334       0.91723822       0.00000000      -0.17058265       0.58345933       0.00000000
