3
Lattice="15.0 0.0 0.0 0.0 15.0 0.0 0.0 0.0 15.0" Properties=species:S:1:pos:R:3:forces:R:3 energy=1.2338710215 pbc="T T T"
O        0.00000000       0.00000000       0.00000000       6.34596341      -1.91796179       0.00000000
H        1.21939131       0.00000000       0.00000000      -5.31796821      -1.02192955       0.00000000
H        0.10353158       0.91611368       0.00000000      -1.02799520       2.93989140       0.00000000
