3
Lattice="15.0 0.0 0.0 0.0 15.0 0.0 0.0 0.0 15.0" Properties=species:S:1:pos:R:3:forces:R:3 energy=0.6491458882 pbc="T T T"
O        0.00000000       0.00000000       0.00000000       4.91711880       3.77866936       0.00000000
H        1.05192978       0.00000000       0.00000000      -2.74157040      -1.73623064       0.00000000
H        0.19408595       1.02172004       0.00000000      -2.17554840      -2.04243873       0.00000000
