3
Lattice="15.0 0.0 0.0 0.0 15.0 0.0 0.0 0.0 15.0" Properties=species:S:1:pos:R:3:forces:R:3 energy=0.1909462548 pbc="T T T"
O        0.00000000       0.00000000       0.00000000       2.46094757      -2.10740226       0.00000000
H        1.01760261       0.00000000       0.00000000      -2.85608497       0.84126941       0.00000000
H       -0.41346387       0.84167630       0.00000000       0.39513740       1.26613284       0.00000000
