3
Lattice="15.0 0.0 0.0 0.0 15.0 0.0 0.0 0.0 15.0" Properties=species:S:1:pos:R:3:forces:R:3 energy=1.5350108914 pbc="T T T"
O        0.00000000       0.00000000       0.00000000       9.54799788     -18.62110043       0.00000000
H        0.99608928       0.00000000       0.00000000      -2.16535546       0.48119391       0.00000000
H       -0.31350456       0.70538853       0.00000000      -7.38264241      18.13990653       0.00000000
