3
Lattice="15.0 0.0 0.0 0.0 15.0 0.0 0.0 0.0 15.0" Properties=species:S:1:pos:R:3:forces:R:3 energy=0.0267925974 pbc="T T T"
O        0.00000000       0.00000000       0.00000000      -0.24337601      -1.47227232       0.00000000
H        0.94561297       0.00000000       0.00000000       0.72481371      -0.08421267       0.00000000
H       -0.22801252       0.90256887       0.00000000      -0.48143770       1.55648498       0.00000000
