3
Lattice="15.0 0.0 0.0 0.0 15.0 0.0 0.0 0.0 15.0" Properties=species:S:1:pos:R:3:forces:R:3 energy=0.0290647372 pbc="T T T"
O        0.00000000       0.00000000       0.00000000       0.81725149      -0.27403226       0.00000000
H        0.96615249       0.00000000       0.00000000      -0.20322570      -0.48438742       0.00000000
H       -0.14095374       0.93627043       0.00000000      -0.61402585       0.75841969       0.00000000
