3
Lattice="15.0 0.0 0.0 0.0 15.0 0.0 0.0 0.0 15.0" Properties=species:S:1:pos:R:3:forces:R:3 energy=0.0065537018 pbc="T T T"
O        0.00000000       0.00000000       0.00000000      -0.42403579      -0.54951283       0.00000000
H        0.95111450       0.00000000       0.00000000       0.34337125       0.18404078       0.00000000
H       -0.27813846       0.90984292       0.00000000       0.08066454       0.36547205       0.00000000
