3
Lattice="15.0 0.0 0.0 0.0 15.0 0.0 0.0 0.0 15.0" Properties=species:S:1:pos:R:3:forces:R:3 energy=0.5493090654 pbc="T T T"
O        0.00000000       0.00000000       0.00000000       1.97360126       4.18819790       0.00000000
H        1.04536993       0.00000000       0.00000000      -3.30958597       0.26326530       0.00000000
H       -0.25971771       1.07136962       0.00000000       1.33598471      -4.45146320       0.00000000
