3
Lattice="15.0 0.0 0.0 0.0 15.0 0.0 0.0 0.0 15.0" Properties=species:S:1:pos:R:3:forces:R:3 energy=0.8937201847 pbc="T T T"
O        0.00000000       0.00000000       0.00000000      -6.01557017       5.70288439       0.00000000
H        0.88135309       0.00000000       0.00000000       5.66645673      -0.38190058       0.00000000
H       -0.13872737       1.15027612       0.00000000       0.34911345      -5.32098386       0.00000000
