3
Lattice="15.0 0.0 0.0 0.0 15.0 0.0 0.0 0.0 15.0" Properties=species:S:1:pos:R:3:forces:R:3 energy=0.0083860757 pbc="T T T"
O        0.00000000       0.00000000       0.00000000      -0.60890292       0.39614625       0.00000000
H        0.95348052       0.00000000       0.00000000       0.23508492       0.19279750       0.00000000
H       -0.27820095       0.93006055       0.00000000       0.37381801      -0.58894380       0.00000000
