3
Lattice="15.0 0.0 0.0 0.0 15.0 0.0 0.0 0.0 15.0" Properties=species:S:1:pos:R:3:forces:R:3 energy=0.0213140637 pbc="T T T"
O        0.00000000       0.00000000       0.00000000       1.40232193      -0.53809888       0.00000000
H        0.98204754       0.00000000       0.00000000      -1.06286802      -0.17871659       0.00000000
H       -0.19383900       0.92635537       0.00000000      -0.33945396       0.71681547       0.00000000
