3
Lattice="15.0 0.0 0.0 0.0 15.0 0.0 0.0 0.0 15.0" Properties=species:S:1:pos:R:3:forces:R:3 energy=0.2997735346 pbc="T T T"
O        0.00000000       0.00000000       0.00000000       4.15926002       1.37671388       0.00000000
H        1.05058092       0.00000000       0.00000000      -3.07420157      -1.00328447       0.00000000
H        0.01384937       0.97617165       0.00000000      -1.08505839      -0.37342946       0.00000000
