3
Lattice="15.0 0.0 0.0 0.0 15.0 0.0 0.0 0.0 15.0" Properties=species:S:1:pos:R:3:forces:R:3 energy=1.6706416394 pbc="T T T"
O        0.00000000       0.00000000       0.00000000     -16.65404973      -6.16988688       0.00000000
H        0.77458002       0.00000000       0.00000000      18.95946230       0.30292176       0.00000000
H       -0.35145666       0.79263331       0.00000000      -2.30541257       5.86696512       0.00000000
