3
Lattice="15.0 0.0 0.0 0.0 15.0 0.0 0.0 0.0 15.0" Properties=species:S:1:pos:R:3:forces:R:3 energy=0.9325985967 pbc="T T T"
O        0.00000000       0.00000000       0.00000000      -8.78601916       1.20327407       0.00000000
H        0.88876559       0.00000000       0.00000000       4.33481610       1.75607468       0.00000000
H       -0.71330198       0.82486645       0.00000000       4.45120306      -2.95934875       0.00000000
