3
Lattice="15.0 0.0 0.0 0.0 15.0 0.0 0.0 0.0 15.0" Properties=species:S:1:pos:R:3:forces:R:3 energy=0.0764495482 pbc="T T T"
O        0.00000000       0.00000000       0.00000000      -2.77668381       0.94874816       0.00000000
H        0.91278426       0.00000000       0.00000000       2.96235221      -0.32371464       0.00000000
H       -0.18964108       0.95304089       0.00000000      -0.18566839      -0.62503352       0.00000000
