3
Lattice="15.0 0.0 0.0 0.0 15.0 0.0 0.0 0.0 15.0" Properties=species:S:1:pos:R:3:forces:R:3 energy=0.1100792321 pbc="T T T"
O        0.00000000       0.00000000       0.00000000       2.98965219      -0.09894705       0.00000000
H        1.02851999       0.00000000       0.00000000      -2.82372932      -0.11252603       0.00000000
H       -0.18851012       0.93778568       0.00000000      -0.16592288       0.21147313       0.00000000
