3
Lattice="15.0 0.0 0.0 0.0 15.0 0.0 0.0 0.0 15.0" Properties=species:S:1:pos:R:3:forces:R:3 energy=0.6085233053 pbc="T T T"
O        0.00000000       0.00000000       0.00000000       2.09340881      -7.07265470       0.00000000
H        0.93253949       0.00000000       0.00000000       0.74425424       1.42790627       0.00000000
H       -0.56575474       0.65616114       0.00000000      -2.83766300       5.64474843       0.00000000
