3
Lattice="15.0 0.0 0.0 0.0 15.0 0.0 0.0 0.0 15.0" Properties=species:S:1:pos:R:3:forces:R:3 energy=0.0486777627 pbc="T T T"
O        0.00000000       0.00000000       0.00000000      -1.58748700      -1.34826811       0.00000000
H        0.92963347       0.00000000       0.00000000       1.53512219       0.38706043       0.00000000
H       -0.32632573       0.88146069       0.00000000       0.05236481       0.96120768       0.00000000
