3
Lattice="15.0 0.0 0.0 0.0 15.0 0.0 0.0 0.0 15.0" Properties=species:S:1:pos:R:3:forces:R:3 energy=0.1885132957 pbc="T T T"
O        0.00000000       0.00000000       0.00000000      -0.25930122      -4.76792306       0.00000000
H        0.92827568       0.00000000       0.00000000       1.62529067       0.17503924       0.00000000
H       -0.28508262       0.83958680       0.00000000      -1.36598945       4.59288382       0.00000000
