3
Lattice="15.0 0.0 0.0 0.0 15.0 0.0 0.0 0.0 15.0" Properties=species:S:1:pos:R:3:forces:R:3 energy=0.2813328898 pbc="T T T"
O        0.00000000       0.00000000       0.00000000       3.17941075       3.20244163       0.00000000
H        1.01972940       0.00000000       0.00000000      -2.13359569      -1.01437503       0.00000000
H        0.01559109       1.02169343       0.00000000      -1.04581506      -2.18806659       0.00000000
