3
Lattice="15.0 0.0 0.0 0.0 15.0 0.0 0.0 0.0 15.0" Properties=species:S:1:pos:R:3:forces:R:3 energy=1.5625762703 pbc="T T T"
O        0.00000000       0.00000000       0.00000000      -4.90429819       2.82146942       0.00000000
H        0.95360438       0.00000000       0.00000000       0.19657157       1.63942927       0.00000000
H       -0.72024125       1.01456404       0.00000000       4.70772662      -4.46089869       0.00000000
