3
Lattice="15.0 0.0 0.0 0.0 15.0 0.0 0.0 0.0 15.0" Properties=species:S:1:pos:R:3:forces:R:3 energy=0.0681756677 pbc="T T T"
O        0.00000000       0.00000000       0.00000000       0.18814437       2.33802615       0.00000000
H        0.97068435       0.00000000       0.00000000      -0.48601925      -0.14025287       0.00000000
H       -0.19636876       0.99180136       0.00000000       0.29787489      -2.19777328       0.00000000
