3
Lattice="15.0 0.0 0.0 0.0 15.0 0.0 0.0 0.0 15.0" Properties=species:S:1:pos:R:3:forces:R:3 energy=0.5872854444 pbc="T T T"
O        0.00000000       0.00000000       0.00000000       4.75465976      -9.54685435       0.00000000
H        0.97229908       0.00000000       0.00000000      -1.15741040       0.78511161       0.00000000
H       -0.39178775       0.74206147       0.00000000      -3.59724936       8.76174279       0.00000000
