3
Lattice="15.0 0.0 0.0 0.0 15.0 0.0 0.0 0.0 15.0" Properties=species:S:1:pos:R:3:forces:R:3 energy=0.9133558012 pbc="T T T"
O        0.00000000       0.00000000       0.00000000       5.34388196       0.10545786       0.00000000
H        1.19840070       0.00000000       0.00000000      -5.81667139       0.29293307       0.00000000
H       -0.23724221       0.94242037       0.00000000       0.47278943      -0.39839098       0.00000000
