3
Lattice="15.0 0.0 0.0 0.0 15.0 0.0 0.0 0.0 15.0" Properties=species:S:1:pos:R:3:forces:R:3 energy=0.0739218744 pbc="T T T"
O        0.00000000       0.00000000       0.00000000      -2.23869524      -1.57640153       0.00000000
H        0.91671114       0.00000000       0.00000000       2.44432569       0.23958738       0.00000000
H       -0.30020709       0.88356886       0.00000000      -0.20563045       1.33681415       0.00000000
