3
Lattice="15.0 0.0 0.0 0.0 15.0 0.0 0.0 0.0 15.0" Properties=species:S:1:pos:R:3:forces:R:3 energy=0.7508721227 pbc="T T T"
O        0.00000000       0.00000000       0.00000000       1.61634590       2.60608358       0.00000000
H        1.08231963       0.00000000       0.00000000      -4.44274078       0.98230087       0.00000000
H       -0.47170057       0.97502528       0.00000000       2.82639493      -3.58838445       0.00000000
