3
Lattice="15.0 0.0 0.0 0.0 15.0 0.0 0.0 0.0 15.0" Properties=species:S:1:pos:R:3:forces:R:3 energy=0.4378853814 pbc="T T T"
O        0.00000000       0.00000000       0.00000000      -7.65104211       0.05248637       0.00000000
H        0.85188040       0.00000000       0.00000000       8.48273262      -0.78921720       0.00000000
H       -0.14324271       0.93526378       0.00000000      -0.83169051       0.73673083       0.00000000
