3
Lattice="15.0 0.0 0.0 0.0 15.0 0.0 0.0 0.0 15.0" Properties=species:S:1:pos:R:3:forces:R:3 energy=1.0871428362 pbc="T T T"
O        0.00000000       0.00000000       0.00000000      -2.27576588       4.96625934       0.00000000
H        0.89221927       0.00000000       0.00000000       5.55661689      -3.13205122       0.00000000
H        0.31121302       1.02574177       0.00000000      -3.28085095      -1.83420812       0.00000000
