3
Lattice="15.0 0.0 0.0 0.0 15.0 0.0 0.0 0.0 15.0" Properties=species:S:1:pos:R:3:forces:R:3 energy=0.0254721785 pbc="T T T"
O        0.00000000       0.00000000       0.00000000      -0.90819896      -0.98051981       0.00000000
H        0.94297477       0.00000000       0.00000000       0.73237995       0.37240925       0.00000000
H       -0.31987441       0.89099297       0.00000000       0.17581901       0.60811061       0.00000000
