3
Lattice="15.0 0.0 0.0 0.0 15.0 0.0 0.0 0.0 15.0" Properties=species:S:1:pos:R:3:forces:R:3 energy=0.0548462465 pbc="T T T"
O        0.00000000       0.00000000       0.00000000       0.06237823       0.66040158       0.00000000
H        0.97677572       0.00000000       0.00000000      -1.02333034       0.50302392       0.00000000
H       -0.34127245       0.92448589       0.00000000       0.96095211      -1.16342555       0.00000000
