3
Lattice="15.0 0.0 0.0 0.0 15.0 0.0 0.0 0.0 15.0" Properties=species:S:1:pos:R:3:forces:R:3 energy=0.1609274701 pbc="T T T"
O        0.00000000       0.00000000       0.00000000       2.51926536       2.53843633       0.00000000
H        1.01632372       0.00000000       0.00000000      -2.23072271      -0.48966493       0.00000000
H       -0.10134901       1.00511010       0.00000000      -0.28854270      -2.04877136       0.00000000
