3
Lattice="15.0 0.0 0.0 0.0 15.0 0.0 0.0 0.0 15.0" Properties=species:S:1:pos:R:3:forces:R:3 energy=0.0234097241 pbc="T T T"
O        0.00000000       0.00000000       0.00000000       0.07368173       1.43606865       0.00000000
H        0.96242214       0.00000000       0.00000000      -0.07032243      -0.23375910       0.00000000
H       -0.18441401       0.96812148       0.00000000      -0.00335930      -1.20230955       0.00000000
