3
Lattice="15.0 0.0 0.0 0.0 15.0 0.0 0.0 0.0 15.0" Properties=species:S:1:pos:R:3:forces:R:3 energy=1.303312718 pbc="T T T"
O        0.00000000       0.00000000       0.00000000     -15.87753440       1.04864518       0.00000000
H        0.81870749       0.00000000       0.00000000      11.92377134       1.71301804       0.00000000
H       -0.67170561       0.82389494       0.00000000       3.95376306      -2.76166322       0.00000000
