3
Lattice="15.0 0.0 0.0 0.0 15.0 0.0 0.0 0.0 15.0" Properties=species:S:1:pos:R:3:forces:R:3 energy=0.3494280472 pbc="T T T"
O        0.00000000       0.00000000       0.00000000      -1.05227815      -1.33602939       0.00000000
H        0.96641447       0.00000000       0.00000000      -0.93314315       1.47810369       0.00000000
H       -0.60660363       0.76288271       0.00000000       1.98542130      -0.14207429       0.00000000
