3
Lattice="15.0 0.0 0.0 0.0 15.0 0.0 0.0 0.0 15.0" Properties=species:S:1:pos:R:3:forces:R:3 energy=0.008306613 pbc="T T T"
O        0.00000000       0.00000000       0.00000000       0.04274960       0.85469058       0.00000000
H        0.96366301       0.00000000       0.00000000      -0.21577335      -0.02589930       0.00000000
H       -0.22830347       0.94933630       0.00000000       0.17302375      -0.82879128       0.00000000
