3
Lattice="15.0 0.0 0.0 0.0 15.0 0.0 0.0 0.0 15.0" Properties=species:S:1:pos:R:3:forces:R:3 energy=0.0139760454 pbc="T T T"
O        0.00000000       0.00000000       0.00000000      -1.08680551      -0.36311100       0.00000000
H        0.94129456       0.00000000       0.00000000       0.89476052       0.22752818       0.00000000
H       -0.28984901       0.91058080       0.00000000       0.19204499       0.13558282       0.00000000
