3
Lattice="15.0 0.0 0.0 0.0 15.0 0.0 0.0 0.0 15.0" Properties=species:S:1:pos:R:3:forces:R:3 energy=0.1598396324 pbc="T T T"
O        0.00000000       0.00000000       0.00000000      -3.95715754      -1.68081963       0.00000000
H        0.89221561       0.00000000       0.00000000       4.34866757       0.11018010       0.00000000
H       -0.28312676       0.88474268       0.00000000      -0.39151009       1.57063953       0.00000000
