3
Lattice="15.0 0.0 0.0 0.0 15.0 0.0 0.0 0.0 15.0" Properties=species:S:1:pos:R:3:forces:R:3 energy=0.0520225563 pbc="T T T"
O        0.00000000       0.00000000       0.00000000      -2.68461601       0.17864239       0.00000000
H        0.91702861       0.00000000       0.00000000       2.51234749       0.09366471       0.00000000
H       -0.26961041       0.92477782       0.00000000       0.17226847      -0.27230710       0.00000000
