3
Lattice="15.0 0.0 0.0 0.0 15.0 0.0 0.0 0.0 15.0" Properties=species:S:1:pos:R:3:forces:R:3 energy=1.4121769181 pbc="T T T"
O        0.00000000       0.00000000       0.00000000       0.85548407       3.50967281       0.00000000
H        1.09297865       0.00000000       0.00000000      -4.55492295       1.16417822       0.00000000
H       -0.55954350       1.05087420       0.00000000       3.69943888      -4.67385098       0.00000000
