3
Lattice="15.0 0.0 0.0 0.0 15.0 0.0 0.0 0.0 15.0" Properties=species:S:1:pos:R:3:forces:R:3 energy=0.4615179123 pbc="T T T"
O        0.00000000       0.00000000       0.00000000      -3.52227883      -3.86611807       0.00000000
H        0.89356340       0.00000000       0.00000000       3.68354704       1.43938460       0.00000000
H       -0.57720698       0.71028309       0.00000000      -0.16126820       2.42673342       0.00000000
