3
Lattice="15.0 0.0 0.0 0.0 15.0 0.0 0.0 0.0 15.0" Properties=species:S:1:pos:R:3:forces:R:3 energy=0.7742324255 pbc="T T T"
O        0.00000000       0.00000000       0.00000000       2.39196653      -2.83344588       0.00000000
H        0.99998741       0.00000000       0.00000000      -0.66344438      -2.69541948       0.00000000
H        0.21448839       0.87329406       0.00000000      -1.72852216       5.52886541       0.00000000
