3
Lattice="15.0 0.0 0.0 0.0 15.0 0.0 0.0 0.0 15.0" Properties=species:S:1:pos:R:3:forces:R:3 energy=0.000499582 pbc="T T T"
O        0.00000000       0.00000000       0.00000000       0.18924233      -0.08603121       0.00000000
H        0.96266539       0.00000000       0.00000000      -0.20639062       0.03048672       0.00000000
H       -0.24228715       0.92666866       0.00000000       0.01714829       0.05554449       0.00000000
