3
Lattice="15.0 0.0 0.0 0.0 15.0 0.0 0.0 0.0 15.0" Properties=species:S:1:pos:R:3:forces:R:3 energy=0.1642399748 pbc="T T T"
O        0.00000000       0.00000000       0.00000000      -4.29974958       1.59733767       0.00000000
H        0.89348918       0.00000000       0.00000000       4.48826856      -0.43262225       0.00000000
H       -0.17517712       0.96813484       0.00000000      -0.18851898      -1.16471542       0.00000000
