3
Lattice="15.0 0.0 0.0 0.0 15.0 0.0 0.0 0.0 15.0" Properties=species:S:1:pos:R:3:forces:R:3 energy=0.0858092772 pbc="T T T"
O        0.00000000       0.00000000       0.00000000       1.58094400       1.22711628       0.00000000
H        0.98156241       0.00000000       0.00000000      -0.77088481      -0.82622408       0.00000000
H       -0.06185814       0.97053660       0.00000000      -0.81005919      -0.40089220       0.00000000
