3
Lattice="15.0 0.0 0.0 0.0 15.0 0.0 0.0 0.0 15.0" Properties=species:S:1:pos:R:3:forces:R:3 energy=1.3697120835 pbc="T T T"
O        0.00000000       0.00000000       0.00000000       2.80322784       3.06597291       0.00000000
H        1.18007770       0.00000000       0.00000000      -5.72976729       0.93096517       0.00000000
H       -0.46450206       1.00979235       0.00000000       2.92653950      -3.99693807       0.00000000
