3
Lattice="15.0 0.0 0.0 0.0 15.0 0.0 0.0 0.0 15.0" Properties=species:S:1:pos:R:3:forces:R:3 energy=0.3096913092 pbc="T T T"
O        0.00000000       0.00000000       0.00000000      -0.00414832      -1.74765817       0.00000000
H        0.97859554       0.00000000       0.00000000      -1.50120681       1.39253862       0.00000000
H       -0.57566490       0.76945447       0.00000000       1.50535513       0.35511955       0.00000000
