3
Lattice="15.0 0.0 0.0 0.0 15.0 0.0 0.0 0.0 15.0" Properties=species:S:1:pos:R:3:forces:R:3 energy=1.1713919159 pbc="T T T"
O        0.00000000       0.00000000       0.00000000     -17.01528208       1.56866821       0.00000000
H        0.78951320       0.00000000       0.00000000      16.68943327      -0.10979696       0.00000000
H       -0.27133519       0.94877429       0.00000000       0.32584881      -1.45887126       0.00000000
