3
Lattice="15.0 0.0 0.0 0.0 15.0 0.0 0.0 0.0 15.0" Properties=species:S:1:pos:R:3:forces:R:3 energy=0.0595200279 pbc="T T T"
O        0.00000000       0.00000000       0.00000000       0.64749875       0.90502159       0.00000000
H        0.96230800       0.00000000       0.00000000       0.11449575      -0.77337714       0.00000000
H       -0.08410714       0.96215230       0.00000000      -0.76199450      -0.13164445       0.00000000
