3
Lattice="15.0 0.0 0.0 0.0 15.0 0.0 0.0 0.0 15.0" Properties=species:S:1:pos:R:3:forces:R:3 energy=0.0424547201 pbc="T T T"
O        0.00000000       0.00000000       0.00000000      -0.35375362       1.87171796       0.00000000
H        0.96109111       0.00000000       0.00000000      -0.05975895      -0.01907291       0.00000000
H       -0.22750362       0.97494659       0.00000000       0.41351257      -1.85264505       0.00000000
