3
Lattice="15.0 0.0 0.0 0.0 15.0 0.0 0.0 0.0 15.0" Properties=species:S:1:pos:R:3:forces:R:3 energy=0.2252992147 pbc="T T T"
O        0.00000000       0.00000000       0.00000000      -0.85510278       3.21324510       0.00000000
H        0.97012807       0.00000000       0.00000000      -0.56819381       0.35959497       0.00000000
H       -0.30614427       1.01360295       0.00000000       1.42329658      -3.57284006       0.00000000
