3
Lattice="15.0 0.0 0.0 0.0 15.0 0.0 0.0 0.0 15.0" Properties=species:S:1:pos:R:3:forces:R:3 energy=0.0628996004 pbc="T T T"
O        0.00000000       0.00000000       0.00000000      -0.98375009      -1.66408735       0.00000000
H        0.94085839       0.00000000       0.00000000       0.75420904       0.62392275       0.00000000
H       -0.37429915       0.86124136       0.00000000       0.22954105       1.04016460       0.00000000
