3
Lattice="15.0 0.0 0.0 0.0 15.0 0.0 0.0 0.0 15.0" Properties=species:S:1:pos:R:3:forces:R:3 energy=0.4976816755 pbc="T T T"
O        0.00000000       0.00000000       0.00000000       4.37444906       3.74233174       0.00000000
H        1.04469750       0.00000000       0.00000000      -2.72609641      -1.37035143       0.00000000
H        0.11358285       1.03195090       0.00000000      -1.64835265      -2.37198026       0.00000000
