3
Lattice="15.0 0.0 0.0 0.0 15.0 0.0 0.0 0.0 15.0" Properties=species:S:1:pos:R:3:forces:R:3 energy=0.1767462978 pbc="T T T"
O        0.00000000       0.00000000       0.00000000      -2.88896137       2.57126049       0.00000000
H        0.90866746       0.00000000       0.00000000       3.44713224      -0.79994848       0.00000000
H       -0.09596761       0.99772060       0.00000000      -0.55817087      -1.77131202       0.00000000
