3
Lattice="15.0 0.0 0.0 0.0 15.0 0.0 0.0 0.0 15.0" Properties=species:S:1:pos:R:3:forces:R:3 energy=1.1054106696 pbc="T T T"
O        0.00000000       0.00000000       0.00000000       4.33534190      -2.57703982       0.00000000
H        1.13818900       0.00000000       0.00000000      -5.78743048       1.50693800       0.00000000
H       -0.64170992       0.70827998       0.00000000       1.45208858       1.07010182       0.00000000
