3
Lattice="15.0 0.0 0.0 0.0 15.0 0.0 0.0 0.0 15.0" Properties=species:S:1:pos:R:3:forces:R:3 energy=0.006773197 pbc="T T T"
O        0.00000000       0.00000000       0.00000000       0.42862675       0.47481001       0.00000000
H        0.96577657       0.00000000       0.00000000      -0.26861495      -0.20932950       0.00000000
H       -0.19145186       0.94579761       0.00000000      -0.16001181      -0.26548051       0.00000000
