3
Lattice="15.0 0.0 0.0 0.0 15.0 0.0 0.0 0.0 15.0" Properties=species:S:1:pos:R:3:forces:R:3 energy=0.0479992087 pbc="T T T"
O        0.00000000       0.00000000       0.00000000       1.79767232      -1.44215209       0.00000000
H        0.99271395       0.00000000       0.00000000      -1.68521596       0.23550488       0.00000000
H       -0.27717836       0.89517017       0.00000000      -0.11245630       1.20664720       0.00000000
