3
Lattice="15.0 0.0 0.0 0.0 15.0 0.0 0.0 0.0 15.0" Properties=species:S:1:pos:R:3:forces:R:3 energy=0.0094941914 pbc="T T T"
O        0.00000000       0.00000000       0.00000000      -1.02693323       0.29625689       0.00000000
H        0.94431855       0.00000000       0.00000000       0.76481762       0.13498411       0.00000000
H       -0.26908315       0.92900889       0.00000000       0.26211561      -0.43124105       0.00000000
