3
Lattice="15.0 0.0 0.0 0.0 15.0 0.0 0.0 0.0 15.0" Properties=species:S:1:pos:R:3:forces:R:3 energy=0.5049787352 pbc="T T T"
O        0.00000000       0.00000000       0.00000000       5.29270007      -4.04919644       0.00000000
H        1.08881403       0.00000000       0.00000000      -4.21415973      -0.51504322       0.00000000
H       -0.08723725       0.88912575       0.00000000      -1.07854039       4.56423966       0.00000000
