3
Lattice="15.0 0.0 0.0 0.0 15.0 0.0 0.0 0.0 15.0" Properties=species:S:1:pos:R:3:forces:R:3 energy=0.0537622456 pbc="T T T"
O        0.00000000       0.00000000       0.00000000       1.81050341      -0.51529313       0.00000000
H        0.98646224       0.00000000       0.00000000      -1.13027656      -0.51177848       0.00000000
H       -0.12712112       0.93411878       0.00000000      -0.68022685       1.02707161       0.00000000
