3
Lattice="15.0 0.0 0.0 0.0 15.0 0.0 0.0 0.0 15.0" Properties=species:S:1:pos:R:3:forces:R:3 energy=0.4738378047 pbc="T T T"
O        0.00000000       0.00000000       0.00000000       4.94105506       1.86660871       0.00000000
H        1.10754433       0.00000000       0.00000000      -4.48812412      -0.48418138       0.00000000
H       -0.06252791       0.99311390       0.00000000      -0.45293099      -1.38242734       0.00000000
