3
Lattice="15.0 0.0 0.0 0.0 15.0 0.0 0.0 0.0 15.0" Properties=species:S:1:pos:R:3:forces:R:3 energy=0.0766754299 pbc="T T T"
O        0.00000000       0.00000000       0.00000000      -0.96180567      -0.74603524       0.00000000
H        0.95238892       0.00000000       0.00000000       0.06756353       0.79425800       0.00000000
H       -0.41307974       0.86817919       0.00000000       0.89424213      -0.04822276       0.00000000
