3
Lattice="15.0 0.0 0.0 0.0 15.0 0.0 0.0 0.0 15.0" Properties=species:S:1:pos:R:3:forces:R:3 energy=0.6146484305 pbc="T T T"
O        0.00000000       0.00000000       0.00000000       5.11503943      -9.69612290       0.00000000
H        0.97687973       0.00000000       0.00000000      -1.39393678       0.82764405       0.00000000
H       -0.40006090       0.73618580       0.00000000      -3.72110264       8.86847885       0.00000000
