3
Lattice="15.0 0.0 0.0 0.0 15.0 0.0 0.0 0.0 15.0" Properties=species:S:1:pos:R:3:forces:R:3 energy=0.0201401182 pbc="T T T"
O        0.00000000       0.00000000       0.00000000      -0.80008351      -0.74767715       0.00000000
H        0.93880957       0.00000000       0.00000000       1.15780280      -0.14242813       0.00000000
H       -0.21816595       0.91665044       0.00000000      -0.35771929       0.89010528       0.00000000
