3
Lattice="15.0 0.0 0.0 0.0 15.0 0.0 0.0 0.0 15.0" Properties=species:S:1:pos:R:3:forces:R:3 energy=0.9554694809 pbc="T T T"
O        0.00000000       0.00000000       0.00000000      -1.56751672       5.55576014       0.00000000
H        0.95608691       0.00000000       0.00000000       0.36088705       0.13351149       0.00000000
H       -0.22914693       1.18621952       0.00000000       1.20662967      -5.68927158       0.00000000
