3
Lattice="15.0 0.0 0.0 0.0 15.0 0.0 0.0 0.0 15.0" Properties=species:S:1:pos:R:3:forces:R:3 energy=0.015938849 pbc="T T T"
O        0.00000000       0.00000000       0.00000000      -1.14655931       0.88718738       0.00000000
H        0.94209352       0.00000000       0.00000000       0.96206962      -0.02875132       0.00000000
H       -0.23525098       0.94781178       0.00000000       0.18448965      -0.85843601       0.00000000
