3
Lattice="15.0 0.0 0.0 0.0 15.0 0.0 0.0 0.0 15.0" Properties=species:S:1:pos:R:3:forces:R:3 energy=0.0271288621 pbc="T T T"
O        0.00000000       0.00000000       0.00000000      -0.23357074       0.16471235       0.00000000
H        0.96490666       0.00000000       0.00000000      -0.44709443       0.43914602       0.00000000
H       -0.32907811       0.91447526       0.00000000       0.68066517      -0.60385837       0.00000000
