3
Lattice="15.0 0.0 0.0 0.0 15.0 0.0 0.0 0.0 15.0" Properties=species:S:1:pos:R:3:forces:R:3 energy=1.6479105074 pbc="T T T"
O        0.00000000       0.00000000       0.00000000       5.54244079       2.86219910       0.00000000
H        1.30564493       0.00000000       0.00000000      -5.94122906       0.03669264       0.00000000
H       -0.12544330       1.03201163       0.00000000       0.39878821      -2.89889175       0.00000000
