3
Lattice="15.0 0.0 0.0 0.0 15.0 0.0 0.0 0.0 15.0" Properties=species:S:1:pos:R:3:forces:R:3 energy=1.7564531778 pbc="T T T"
O        0.00000000       0.00000000       0.00000000       6.51649746       5.78394334       0.00000000
H        1.19952692       0.00000000       0.00000000      -5.30535597      -0.68647325       0.00000000
H        0.11840960       1.17825414       0.00000000      -1.21114150      -5.09747014       0.00000000
