3
Lattice="15.0 0.0 0.0 0.0 15.0 0.0 0.0 0.0 15.0" Properties=species:S:1:pos:R:3:forces:R:3 energy=0.006275166 pbc="T T T"
O        0.00000000       0.00000000       0.00000000      -0.36920894      -0.50103245       0.00000000
H        0.95272656       0.00000000       0.00000000       0.25001825       0.20213904       0.00000000
H       -0.28135307       0.91021076       0.00000000       0.11919069       0.29889345       0.00000000
