3
Lattice="15.0 0.0 0.0 0.0 15.0 0.0 0.0 0.0 15.0" Properties=species:S:1:pos:R:3:forces:R:3 energy=0.015256801 pbc="T T T"
O        0.00000000       0.00000000       0.00000000      -0.70185694       0.62862283       0.00000000
H        0.95421977       0.00000000       0.00000000       0.18588077       0.24193897       0.00000000
H       -0.28816049       0.93361771       0.00000000       0.51597617      -0.87056185       0.00000000
