3
Lattice="15.0 0.0 0.0 0.0 15.0 0.0 0.0 0.0 15.0" Properties=species:S:1:pos:R:3:forces:R:3 energy=1.4645068787 pbc="T T T"
O        0.00000000       0.00000000       0.00000000      10.35918768     -11.55759944       0.00000000
H        1.14425011       0.00000000       0.00000000      -5.81480616       0.97084104       0.00000000
H       -0.41152040       0.71424066       0.00000000      -4.54438153      10.58675839       0.00000000
