3
Lattice="15.0 0.0 0.0 0.0 15.0 0.0 0.0 0.0 15.0" Properties=species:S:1:pos:R:3:forces:R:3 energy=1.6828124406 pbc="T T T"
O        0.00000000       0.00000000       0.00000000     -13.09074455       3.76776860       0.00000000
H        0.84294203       0.00000000       0.00000000       9.26356920       1.34291147       0.00000000
H       -0.57937496       1.06945624       0.00000000       3.82717535      -5.11068012       0.00000000
