3
Lattice="15.0 0.0 0.0 0.0 15.0 0.0 0.0 0.0 15.0" Properties=species:S:1:pos:R:3:forces:R:3 energy=1.4371089832 pbc="T T T"
O        0.00000000       0.00000000       0.00000000       6.56935150      -3.79573707       0.00000000
H        1.27091017       0.00000000       0.00000000      -5.95839138      -0.11377980       0.00000000
H       -0.10311596       0.89651923       0.00000000      -0.61096012       3.90951687       0.00000000
