3
Lattice="15.0 0.0 0.0 0.0 15.0 0.0 0.0 0.0 15.0" Properties=species:S:1:pos:R:3:forces:R:3 energy=0.0075537991 pbc="T T T"
O        0.00000000       0.00000000       0.00000000       0.67389684      -0.63826057       0.00000000
H        0.97060003       0.00000000       0.00000000      -0.63729933       0.10594914       0.00000000
H       -0.25599651       0.91360255       0.00000000      -0.03659751       0.53231137       0.00000000
