3
Lattice="15.0 0.0 0.0 0.0 15.0 0.0 0.0 0.0 15.0" Properties=species:S:1:pos:R:3:forces:R:3 energy=1.0246860522 pbc="T T T"
O        0.00000000       0.00000000       0.00000000       1.71432452       6.20041828       0.00000000
H        0.96457592       0.00000000       0.00000000       0.40960351      -1.61911807       0.00000000
H        0.19665202       1.15949516       0.00000000      -2.12392803      -4.58130022       0.00000000
