3
Lattice="15.0 0.0 0.0 0.0 15.0 0.0 0.0 0.0 15.0" Properties=species:S:1:pos:R:3:forces:R:3 energy=0.7583819211 pbc="T T T"
O        0.00000000       0.00000000       0.00000000      -3.58799364      -7.20113926       0.00000000
H        0.88352358       0.00000000       0.00000000       5.63587426      -1.61235498       0.00000000
H       -0.03578381       0.84962668       0.00000000      -2.04788062       8.81349419       0.00000000
