3
Lattice="15.0 0.0 0.0 0.0 15.0 0.0 0.0 0.0 15.0" Properties=species:S:1:pos:R:3:forces:R:3 energy=0.0201224227 pbc="T T T"
O        0.00000000       0.00000000       0.00000000      -0.16592159      -0.36446495       0.00000000
H        0.96184390       0.00000000       0.00000000      -0.30076074       0.41961128       0.00000000
H       -0.32540446       0.90328137       0.00000000       0.46668234      -0.05514638       0.00000000
