3
Lattice="15.0 0.0 0.0 0.0 15.0 0.0 0.0 0.0 15.0" Properties=species:S:1:pos:R:3:forces:R:3 energy=0.0792359206 pbc="T T T"
O        0.00000000       0.00000000       0.00000000      -0.68018530      -2.67131188       0.00000000
H        0.93612077       0.00000000       0.00000000       1.08096741       0.43144345       0.00000000
H       -0.33349956       0.85610587       0.00000000      -0.40078216       2.23986843       0.00000000
