3
Lattice="15.0 0.0 0.0 0.0 15.0 0.0 0.0 0.0 15.0" Properties=species:S:1:pos:R:3:forces:R:3 energy=0.0554813194 pbc="T T T"
O        0.00000000       0.00000000       0.00000000      -1.11931471      -1.05081545       0.00000000
H        0.92975127       0.00000000       0.00000000       1.80119668      -0.39883501       0.00000000
H       -0.17553051       0.91698451       0.00000000      -0.68188197       1.44965041       0.00000000
