3
Lattice="15.0 0.0 0.0 0.0 15.0 0.0 0.0 0.0 15.0" Properties=species:S:1:pos:R:3:forces:R:3 energy=0.0143109822 pbc="T T T"
O        0.00000000       0.00000000       0.00000000       0.65735467       0.75682720       0.00000000
H        0.97657984       0.00000000       0.00000000      -0.85336152       0.00882326       0.00000000
H       -0.23128521       0.94741702       0.00000000       0.19600686      -0.76565046       0.00000000
