3
Lattice="15.0 0.0 0.0 0.0 15.0 0.0 0.0 0.0 15.0" Properties=species:S:1:pos:R:3:forces:R:3 energy=1.2785218283 pbc="T T T"
O        0.00000000       0.00000000       0.00000000      -7.19750665     -10.41234799       0.00000000
H        0.83765805       0.00000000       0.00000000      10.12466321      -1.26256667       0.00000000
H       -0.11376971       0.81507455       0.00000000      -2.92715657      11.67491461       0.00000000
