3
Lattice="15.0 0.0 0.0 0.0 15.0 0.0 0.0 0.0 15.0" Properties=species:S:1:pos:R:3:forces:R:3 energy=0.0232306541 pbc="T T T"
O        0.00000000       0.00000000       0.00000000      -1.40310781       0.91726653       0.00000000
H        0.94135544       0.00000000       0.00000000       0.95152053       0.14598623       0.00000000
H       -0.27120643       0.94286510       0.00000000       0.45158728      -1.06325275       0.00000000
