3
Lattice="15.0 0.0 0.0 0.0 15.0 0.0 0.0 0.0 15.0" Properties=species:S:1:pos:R:3:forces:R:3 energy=0.1701070734 pbc="T T T"
O        0.00000000       0.00000000       0.00000000      -5.02026919       0.08385832       0.00000000
H        0.88503726       0.00000000       0.00000000       5.04361543      -0.03769059       0.00000000
H       -0.25555349       0.92345786       0.00000000      -0.02334625      -0.04616773       0.00000000
