3
Lattice="15.0 0.0 0.0 0.0 15.0 0.0 0.0 0.0 15.0" Properties=species:S:1:pos:R:3:forces:R:3 energy=0.0376869642 pbc="T T T"
O        0.00000000       0.00000000       0.00000000       0.20655995       1.73722807       0.00000000
H        0.97035114       0.00000000       0.00000000      -0.51019159      -0.06558949       0.00000000
H       -0.21485813       0.97328554       0.00000000       0.30363164      -1.67163858       0.00000000
