3
Lattice="15.0 0.0 0.0 0.0 15.0 0.0 0.0 0.0 15.0" Properties=species:S:1:pos:R:3:forces:R:3 energy=0.0737215033 pbc="T T T"
O        0.00000000       0.00000000       0.00000000      -0.74581891      -1.20729286       0.00000000
H        0.93366659       0.00000000       0.00000000       1.62119706      -0.59040830       0.00000000
H       -0.14060130       0.91846432       0.00000000      -0.87537820       1.79770116       0.00000000
