3
Lattice="15.0 0.0 0.0 0.0 15.0 0.0 0.0 0.0 15.0" Properties=species:S:1:pos:R:3:forces:R:3 energy=1.354101276 pbc="T T T"
O        0.00000000       0.00000000       0.00000000       5.68009998       1.33671531       0.00000000
H        1.09071263       0.00000000       0.00000000      -2.69388304      -3.12761056       0.00000000
H        0.42143596       0.88961275       0.00000000      -2.98621694       1.79089524       0.00000000
