3
Lattice="15.0 0.0 0.0 0.0 15.0 0.0 0.0 0.0 15.0" Properties=species:S:1:pos:R:3:forces:R:3 energy=0.6965065464 pbc="T T T"
O        0.00000000       0.00000000       0.00000000       4.16187164      -5.13069452       0.00000000
H        1.05282766       0.00000000       0.00000000      -2.86983225      -1.62133791       0.00000000
H        0.08613178       0.87104526       0.00000000      -1.29203944       6.75203243       0.00000000
