3
Lattice="15.0 0.0 0.0 0.0 15.0 0.0 0.0 0.0 15.0" Properties=species:S:1:pos:R:3:forces:R:3 energy=1.6520064197 pbc="T T T"
O        0.00000000       0.00000000       0.00000000       2.08635108       5.86360356       0.00000000
H        1.03565807       0.00000000       0.00000000      -2.80298816       0.03087223       0.00000000
H       -0.15254698       1.29934337       0.00000000       0.71663703      -5.89447579       0.00000000
