3
Lattice="15.0 0.0 0.0 0.0 15.0 0.0 0.0 0.0 15.0" Properties=species:S:1:pos:R:3:forces:R:3 energy=0.550928034 pbc="T T T"
O        0.00000000       0.00000000       0.00000000      -8.54830822       2.16327318       0.00000000
H        0.87353612       0.00000000       0.00000000       5.88815452       1.04805244       0.00000000
H       -0.48890667       0.93436336       0.00000000       2.66015370      -3.21132561       0.00000000
