3
Lattice="15.0 0.0 0.0 0.0 15.0 0.0 0.0 0.0 15.0" Properties=species:S:1:pos:R:3:forces:R:3 energy=0.0085716383 pbc="T T T"
O        0.00000000       0.00000000       0.00000000      -0.61798638       0.80874170       0.00000000
H        0.95030098       0.00000000       0.00000000       0.50244265      -0.06215696       0.00000000
H       -0.22580579       0.94782614       0.00000000       0.11554373      -0.74658479       0.00000000
