3
Lattice="15.0 0.0 0.0 0.0 15.0 0.0 0.0 0.0 15.0" Properties=species:S:1:pos:R:3:forces:R:3 energy=0.2424986474 pbc="T T T"
O        0.00000000       0.00000000       0.00000000      -6.44353821       0.40484975       0.00000000
H        0.87553031       0.00000000       0.00000000       5.78066765       0.38526827       0.00000000
H       -0.33881966       0.91272956       0.00000000       0.66287056      -0.79011801       0.00000000
