3
Lattice="15.0 0.0 0.0 0.0 15.0 0.0 0.0 0.0 15.0" Properties=species:S:1:pos:R:3:forces:R:3 energy=0.3495852692 pbc="T T T"
O        0.00000000       0.00000000       0.00000000       0.25236125      -2.73662878       0.00000000
H        0.96941659       0.00000000       0.00000000      -1.14606191       1.45648270       0.00000000
H       -0.59269805       0.73089166       0.00000000       0.89370071       1.28014608       0.00000000
