3
Lattice="15.0 0.0 0.0 0.0 15.0 0.0 0.0 0.0 15.0" Properties=species:S:1:pos:R:3:forces:R:3 energy=0.0147702941 pbc="T T T"
O        0.00000000       0.00000000       0.00000000      -0.29912758      -0.50178182       0.00000000
H        0.95705968       0.00000000       0.00000000      -0.03616279       0.36214370       0.00000000
H       -0.31403220       0.90292563       0.00000000       0.33529037       0.13963812       0.00000000
