3
Lattice="15.0 0.0 0.0 0.0 15.0 0.0 0.0 0.0 15.0" Properties=species:S:1:pos:R:3:forces:R:3 energy=0.0296128289 pbc="T T T"
O        0.00000000       0.00000000       0.00000000       1.58248127       0.23397389       0.00000000
H        0.99354322       0.00000000       0.00000000      -1.58529688      -0.03963995       0.00000000
H       -0.21626664       0.93903585       0.00000000       0.00281562      -0.19433394       0.00000000
