3
Lattice="15.0 0.0 0.0 0.0 15.0 0.0 0.0 0.0 15.0" Properties=species:S:1:pos:R:3:forces:R:3 energy=0.0095687342 pbc="T T T"
O        0.00000000       0.00000000       0.00000000      -0.54247443       0.83821818       0.00000000
H        0.95408501       0.00000000       0.00000000       0.25984008       0.04989855       0.00000000
H       -0.24732334       0.94560152       0.00000000       0.28263436      -0.88811673       0.00000000
