3
Lattice="15.0 0.0 0.0 0.0 15.0 0.0 0.0 0.0 15.0" Properties=species:S:1:pos:R:3:forces:R:3 energy=0.0438336054 pbc="T T T"
O        0.00000000       0.00000000       0.00000000      -1.32390278      -1.50933499       0.00000000
H        0.92930477       0.00000000       0.00000000       1.65099636       0.09373151       0.00000000
H       -0.26789033       0.89308171       0.00000000      -0.32709364       1.41560348       0.00000000
