3
Lattice="15.0 0.0 0.0 0.0 15.0 0.0 0.0 0.0 15.0" Properties=species:S:1:pos:R:3:forces:R:3 energy=0.2281040419 pbc="T T T"
O        0.00000000       0.00000000       0.00000000       2.66782973       1.91888101       0.00000000
H        0.99935208       0.00000000       0.00000000      -1.29409520      -1.32384575       0.00000000
H        0.04611227       0.98303306       0.00000000      -1.37373454      -0.59503526       0.00000000
