3
Lattice="15.0 0.0 0.0 0.0 15.0 0.0 0.0 0.0 15.0" Properties=species:S:1:pos:R:3:forces:R:3 energy=1.5362240022 pbc="T T T"
O        0.00000000       0.00000000       0.00000000       0.51774987       1.62311757       0.00000000
H        1.11858796       0.00000000       0.00000000      -5.18935766       1.57786979       0.00000000
H       -0.72464841       0.87434064       0.00000000       4.67160779      -3.20098736       0.00000000
