3
Lattice="15.0 0.0 0.0 0.0 15.0 0.0 0.0 0.0 15.0" Properties=species:S:1:pos:R:3:forces:R:3 energy=0.4686185765 pbc="T T T"
O        0.00000000       0.00000000       0.00000000       4.39673961       3.69662902       0.00000000
H        1.05461908       0.00000000       0.00000000      -3.10020999      -1.11243541       0.00000000
H        0.06616576       1.03675280       0.00000000      -1.29652962      -2.58419366       0.00000000
