3
Lattice="15.0 0.0 0.0 0.0 15.0 0.0 0.0 0.0 15.0" Properties=species:S:1:pos:R:3:forces:R:3 energy=1.1062314956 pbc="T T T"
O        0.00000000       0.00000000       0.00000000       0.16294035       6.32586324       0.00000000
H        0.95664573       0.00000000       0.00000000       0.57613219      -0.79355440       0.00000000
H        0.02614925       1.22290587       0.00000000      -0.73907254      -5.53230884       0.00000000
