3
Lattice="15.0 0.0 0.0 0.0 15.0 0.0 0.0 0.0 15.0" Properties=species:S:1:pos:R:3:forces:R:3 energy=0.0201066265 pbc="T T T"
O        0.00000000       0.00000000       0.00000000       0.63932454       0.76603885       0.00000000
H        0.97893979       0.00000000       0.00000000      -0.99658762       0.11624292       0.00000000
H       -0.25343901       0.94440055       0.00000000       0.35726308      -0.88228177       0.00000000
