3
Lattice="15.0 0.0 0.0 0.0 15.0 0.0 0.0 0.0 15.0" Properties=species:S:1:pos:R:3:forces:R:3 energy=0.0068852045 pbc="T T T"
O        0.00000000       0.00000000       0.00000000       0.47896923       0.46602686       0.00000000
H        0.96687853       0.00000000       0.00000000      -0.32574072      -0.20233121       0.00000000
H       -0.19242995       0.94555996       0.00000000      -0.15322851      -0.26369565       0.00000000
