3
Lattice="15.0 0.0 0.0 0.0 15.0 0.0 0.0 0.0 15.0" Properties=species:S:1:pos:R:3:forces:R:3 energy=0.0154041588 pbc="T T T"
O        0.00000000       0.00000000       0.00000000      -1.19266662      -0.24678997       0.00000000
H        0.94045262       0.00000000       0.00000000       0.94245214       0.24367009       0.00000000
H       -0.29333071       0.91219765       0.00000000       0.25021448       0.00311983       0.00000000
