3
Lattice="15.0 0.0 0.0 0.0 15.0 0.0 0.0 0.0 15.0" Properties=species:S:1:pos:R:3:forces:R:3 energy=1.2180900938 pbc="T T T"
O        0.00000000       0.00000000       0.00000000       5.73912267      -0.31301890       0.00000000
H        1.25178208       0.00000000       0.00000000      -6.02365136       0.22774220       0.00000000
H       -0.20551964       0.94035363       0.00000000       0.28452864       0.08527669       0.00000000
