3
Lattice="15.0 0.0 0.0 0.0 15.0 0.0 0.0 0.0 15.0" Properties=species:S:1:pos:R:3:forces:R:3 energy=1.0729938679 pbc="T T T"
O        0.00000000       0.00000000       0.00000000       6.32601354      -6.06404182       0.00000000
H        0.99972070       0.00000000       0.00000000      -2.96781236       1.62061409       0.00000000
H       -0.72867783       0.48170604       0.00000000      -3.35820118       4.44342773       0.00000000
