3
Lattice="15.0 0.0 0.0 0.0 15.0 0.0 0.0 0.0 15.0" Properties=species:S:1:pos:R:3:forces:R:3 energy=0.012038339 pbc="T T T"
O        0.00000000       0.00000000       0.00000000      -0.21887992      -0.14600376       0.00000000
H        0.94958176       0.00000000       0.00000000       0.59763321      -0.28780444       0.00000000
H       -0.18478089       0.93320189       0.00000000      -0.37875329       0.43380820       0.00000000
