3
Lattice="15.0 0.0 0.0 0.0 15.0 0.0 0.0 0.0 15.0" Properties=species:S:1:pos:R:3:forces:R:3 energy=0.0798358337 pbc="T T T"
O        0.00000000       0.00000000       0.00000000       1.68310879       1.83226699       0.00000000
H        0.99108648       0.00000000       0.00000000      -1.27091247      -0.54759473       0.00000000
H       -0.10658919       0.98443778       0.00000000      -0.41219627      -1.28467220       0.00000000
