3
Lattice="15.0 0.0 0.0 0.0 15.0 0.0 0.0 0.0 15.0" Properties=species:S:1:pos:R:3:forces:R:3 energy=0.0027595665 pbc="T T T"
O        0.00000000       0.00000000       0.00000000      -0.25059217      -0.30100767       0.00000000
H        0.95180612       0.00000000       0.00000000       0.38995693      -0.05028134       0.00000000
H       -0.23025980       0.92380472       0.00000000      -0.13936476       0.35128901       0.00000000
