3
Lattice="15.0 0.0 0.0 0.0 15.0 0.0 0.0 0.0 15.0" Properties=species:S:1:pos:R:3:forces:R:3 energy=0.0252520547 pbc="T T T"
O        0.00000000       0.00000000       0.00000000       0.93153251       1.02259002       0.00000000
H        0.98282644       0.00000000       0.00000000      -1.11156782      -0.04204738       0.00000000
H       -0.21764090       0.95581759       0.00000000       0.18003531      -0.98054264       0.00000000
