3
Lattice="15.0 0.0 0.0 0.0 15.0 0.0 0.0 0.0 15.0" Properties=species:S:1:pos:R:3:forces:R:3 energy=0.008226119 pbc="T T T"
O        0.00000000       0.00000000       0.00000000       0.56579846       0.54823463       0.00000000
H        0.97303306       0.00000000       0.00000000      -0.68657347      -0.00976243       0.00000000
H       -0.22910936       0.94282604       0.00000000       0.12077501      -0.53847215       0.00000000
