3
Lattice="15.0 0.0 0.0 0.0 15.0 0.0 0.0 0.0 15.0" Properties=species:S:1:pos:R:3:forces:R:3 energy=0.0098895728 pbc="T T T"
O        0.00000000       0.00000000       0.00000000       0.41522168      -0.73905814       0.00000000
H        0.96057461       0.00000000       0.00000000      -0.04746896      -0.15897987       0.00000000
H       -0.20658969       0.91974138       0.00000000      -0.36775272       0.89803796       0.00000000
