3
Lattice="15.0 0.0 0.0 0.0 15.0 0.0 0.0 0.0 15.0" Properties=species:S:1:pos:R:3:forces:R:3 energy=0.0619219525 pbc="T T T"
O        0.00000000       0.00000000       0.00000000       1.14479656       1.56191300       0.00000000
H        0.97634520       0.00000000       0.00000000      -0.60114796      -0.63709925       0.00000000
H       -0.09816661       0.97718069       0.00000000      -0.54364860      -0.92481375       0.00000000
