3
Lattice="15.0 0.0 0.0 0.0 15.0 0.0 0.0 0.0 15.0" Properties=species:S:1:pos:R:3:forces:R:3 energy=0.021334162 pbc="T T T"
O        0.00000000       0.00000000       0.00000000       0.56207910       1.12564960       0.00000000
H        0.96912237       0.00000000       0.00000000      -0.38174112      -0.31769337       0.00000000
H       -0.16615592       0.96284243       0.00000000      -0.18033798      -0.80795623       0.00000000
