3
Lattice="15.0 0.0 0.0 0.0 15.0 0.0 0.0 0.0 15.0" Properties=species:S:1:pos:R:3:forces:R:3 energy=0.1901688936 pbc="T T T"
O        0.00000000       0.00000000       0.00000000      -3.96882685      -2.20878363       0.00000000
H        0.88934270       0.00000000       0.00000000       4.60005226       0.03911005       0.00000000
H       -0.27162309       0.87853116       0.00000000      -0.63122546       2.16967358       0.00000000
