3
Lattice="15.0 0.0 0.0 0.0 15.0 0.0 0.0 0.0 15.0" Properties=species:S:1:pos:R:3:forces:R:3 energy=0.144600742 pbc="T T T"
O        0.00000000       0.00000000       0.00000000       2.35854423      -1.37188401       0.00000000
H        0.99281344       0.00000000       0.00000000      -1.24633400      -0.90913197       0.00000000
H       -0.05470170       0.92372274       0.00000000      -1.11221023       2.28101592       0.00000000
