3
Lattice="15.0 0.0 0.0 0.0 15.0 0.0 0.0 0.0 15.0" Properties=species:S:1:pos:R:3:forces:R:3 energy=1.7028299144 pbc="T T T"
O        0.00000000       0.00000000       0.00000000       7.26896484     -11.02446963       0.00000000
H        1.22097623       0.00000000       0.00000000      -5.76431332      -0.35007391       0.00000000
H       -0.07152698       0.82478804       0.00000000      -1.50465152      11.37454349       0.00000000
