3
Lattice="15.0 0.0 0.0 0.0 15.0 0.0 0.0 0.0 15.0" Properties=species:S:1:pos:R:3:forces:R:3 energy=0.0036098298 pbc="T T T"
O        0.00000000       0.00000000       0.00000000      -0.57967317       0.24690120       0.00000000
H        0.95113698       0.00000000       0.00000000       0.39227638       0.09148663       0.00000000
H       -0.25804799       0.93030732       0.00000000       0.18739679      -0.33838783       0.00000000
