3
Lattice="15.0 0.0 0.0 0.0 15.0 0.0 0.0 0.0 15.0" Properties=species:S:1:pos:R:3:forces:R:3 energy=0.3896240318 pbc="T T T"
O        0.00000000       0.00000000       0.00000000      -0.31350345       0.28480550       0.00000000
H        1.00250457       0.00000000       0.00000000      -2.37114979       1.33302110       0.00000000
H       -0.56875152       0.84051864       0.00000000       2.68465319      -1.61782660       0.00000000
