3
Lattice="15.0 0.0 0.0 0.0 15.0 0.0 0.0 0.0 15.0" Properties=species:S:1:pos:R:3:forces:R:3 energy=0.1336209613 pbc="T T T"
O        0.00000000       0.00000000       0.00000000       2.96317249      -3.23656419       0.00000000
H        1.00624134       0.00000000       0.00000000      -2.19613559       0.09578073       0.00000000
H       -0.24419675       0.87426114       0.00000000      -0.76703690       3.14078346       0.00000000
