3
Lattice="15.0 0.0 0.0 0.0 15.0 0.0 0.0 0.0 15.0" Properties=species:S:1:pos:R:3:forces:R:3 energy=0.9604349412 pbc="T T T"
O        0.00000000       0.00000000       0.00000000       3.21623025      -2.36361692       0.00000000
H        1.02717509       0.00000000       0.00000000      -1.40941000      -2.94587343       0.00000000
H        0.27582340       0.86419561       0.00000000      -1.80682020       5.30949030       0.00000000
