3
Lattice="15.0 0.0 0.0 0.0 15.0 0.0 0.0 0.0 15.0" Properties=species:S:1:pos:R:3:forces:R:3 energy=0.0924738708 pbc="T T T"
O        0.00000000       0.00000000       0.00000000       0.72964579       0.67748220       0.00000000
H        0.96060970       0.00000000       0.00000000       0.27934684      -0.99048022       0.00000000
H       -0.04784843       0.95782793       0.00000000      -1.00899263       0.31299797       0.00000000
