3
Lattice="15.0 0.0 0.0 0.0 15.0 0.0 0.0 0.0 15.0" Properties=species:S:1:pos:R:3:forces:R:3 energy=0.0125313521 pbc="T T T"
O        0.00000000       0.00000000       0.00000000       0.74625657       0.66359129       0.00000000
H        0.97299187       0.00000000       0.00000000      -0.61127796      -0.21735962       0.00000000
H       -0.18633185       0.95083185       0.00000000      -0.13497861      -0.44623172       0.00000000
