3
Lattice="15.0 0.0 0.0 0.0 15.0 0.0 0.0 0.0 15.0" Properties=species:S:1:pos:R:3:forces:R:3 energy=0.1128558057 pbc="T T T"
O        0.00000000       0.00000000       0.00000000       1.24476799      -2.03974724       0.00000000
H        0.98511515       0.00000000       0.00000000      -1.57960569       0.79961022       0.00000000
H       -0.40729476       0.84401123       0.00000000       0.33483775       1.24013702       0.00000000
