3
Lattice="15.0 0.0 0.0 0.0 15.0 0.0 0.0 0.0 15.0" Properties=species:S:1:pos:R:3:forces:R:3 energy=1.3346025356 pbc="T T T"
O        0.00000000       0.00000000       0.00000000       0.58607481     -11.09636763       0.00000000
H        0.97991176       0.00000000       0.00000000       0.11425227      -2.66962107       0.00000000
H        0.14914217       0.80377255       0.00000000      -0.70032708      13.76598871       0.00000000
