3
Lattice="15.0 0.0 0.0 0.0 15.0 0.0 0.0 0.0 15.0" Properties=species:S:1:pos:R:3:forces:R:3 energy=0.0073055606 pbc="T T T"
O        0.00000000       0.00000000       0.00000000      -0.77026898       0.02606339       0.00000000
H        0.94843724       0.00000000       0.00000000       0.50378425       0.19382049       0.00000000
H       -0.28037264       0.92116343       0.00000000       0.26648473      -0.21988388       0.00000000
