3
Lattice="15.0 0.0 0.0 0.0 15.0 0.0 0.0 0.0 15.0" Properties=species:S:1:pos:R:3:forces:R:3 energy=0.0027575611 pbc="T T T"
O        0.00000000       0.00000000       0.00000000       0.26557451       0.30303633       0.00000000
H        0.96641464       0.00000000       0.00000000      -0.38642660       0.03317285       0.00000000
H       -0.24083993       0.93528664       0.00000000       0.12085209      -0.33620918       0.00000000
