3
Lattice="15.0 0.0 0.0 0.0 15.0 0.0 0.0 0.0 15.0" Properties=species:S:1:pos:R:3:forces:R:3 energy=0.0054227231 pbc="T T T"
O        0.00000000       0.00000000       0.00000000       0.02388114      -0.02942572       0.00000000
H        0.96324720       0.00000000       0.00000000      -0.29339803       0.20649398       0.00000000
H       -0.27870416       0.92110891       0.00000000       0.26951689      -0.17706826       0.00000000
