3
Lattice="15.0 0.0 0.0 0.0 15.0 0.0 0.0 0.0 15.0" Properties=species:S:1:pos:R:3:forces:R:3 energy=0.6738210343 pbc="T T T"
O        0.00000000       0.00000000       0.00000000       3.57592282      -1.18970563       0.00000000
H        1.10755566       0.00000000       0.00000000      -5.15630591       1.17944214       0.00000000
H       -0.51432259       0.82323021       0.00000000       1.58038309       0.01026349       0.00000000
