3
Lattice="15.0 0.0 0.0 0.0 15.0 0.0 0.0 0.0 15.0" Properties=species:S:1:pos:R:3:forces:R:3 energy=0.0064223796 pbc="T T T"
O        0.00000000       0.00000000       0.00000000      -0.59023110      -0.46624432       0.00000000
H        0.94600996       0.00000000       0.00000000       0.68603004       0.02290293       0.00000000
H       -0.24709500       0.91734901       0.00000000      -0.09579894       0.44334139       0.00000000
