3
Lattice="15.0 0.0 0.0 0.0 15.0 0.0 0.0 0.0 15.0" Properties=species:S:1:pos:R:3:forces:R:3 energy=0.050316846 pbc="T T T"
O        0.00000000       0.00000000       0.00000000       1.88996596       0.55182626       0.00000000
H        0.99405506       0.00000000       0.00000000      -1.45909520      -0.43018541       0.00000000
H       -0.13519890       0.95430537       0.00000000      -0.43087076      -0.12164085       0.00000000
