3
Lattice="15.0 0.0 0.0 0.0 15.0 0.0 0.0 0.0 15.0" Properties=species:S:1:pos:R:3:forces:R:3 energy=0.1377741263 pbc="T T T"
O        0.00000000       0.00000000       0.00000000       1.93896314       2.69107077       0.00000000
H        0.99936512       0.00000000       0.00000000      -1.58081524      -0.56086719       0.00000000
H       -0.09359249       1.00835432       0.00000000      -0.35814795      -2.13020358       0.00000000
