3
Lattice="15.0 0.0 0.0 0.0 15.0 0.0 0.0 0.0 15.0" Properties=species:S:1:pos:R:3:forces:R:3 energy=0.0728105831 pbc="T T T"
O        0.00000000       0.00000000       0.00000000       2.55131340      -0.92716667       0.00000000
H        1.01163252       0.00000000       0.00000000      -2.30788253      -0.01845282       0.00000000
H       -0.21639433       0.91727961       0.00000000      -0.24343088       0.94561954       0.00000000
