3
Lattice="15.0 0.0 0.0 0.0 15.0 0.0 0.0 0.0 15.0" Properties=species:S:1:pos:R:3:forces:R:3 energy=0.0457713173 pbc="T T T"
O        0.00000000       0.00000000       0.00000000      -1.19100281       1.49669622       0.00000000
H        0.95042887       0.00000000       0.00000000       0.41868213       0.24651024       0.00000000
H       -0.28893570       0.95551643       0.00000000       0.77232062      -1.74320650       0.00000000
