3
Lattice="15.0 0.0 0.0 0.0 15.0 0.0 0.0 0.0 15.0" Properties=species:S:1:pos:R:3:forces:R:3 energy=1.2235633729 pbc="T T T"
O        0.00000000       0.00000000       0.00000000      -0.87035004       5.76282408       0.00000000
H        0.96791801       0.00000000       0.00000000      -0.20454781       0.10823578       0.00000000
H       -0.20857698       1.23670475       0.00000000       1.07489785      -5.87105987       0.00000000
