3
Lattice="15.0 0.0 0.0 0.0 15.0 0.0 0.0 0.0 15.0" Properties=species:S:1:pos:R:3:forces:R:3 energy=0.0316590082 pbc="T T T"
O        0.00000000       0.00000000       0.00000000       0.05664518       1.64337037       0.00000000
H        0.96662604       0.00000000       0.00000000      -0.32755242      -0.07572319       0.00000000
H       -0.21442431       0.97061142       0.00000000       0.27090719      -1.56764713       0.00000000
