3
Lattice="15.0 0.0 0.0 0.0 15.0 0.0 0.0 0.0 15.0" Properties=species:S:1:pos:R:3:forces:R:3 energy=1.7389215213 pbc="T T T"
O        0.00000000       0.00000000       0.00000000       1.57214903       3.18015678       0.00000000
H        1.15586739       0.00000000       0.00000000      -5.47950818       1.21436247       0.00000000
H       -0.59221911       1.02528592       0.00000000       3.90735915      -4.39451931       0.00000000
