3
Lattice="15.0 0.0 0.0 0.0 15.0 0.0 0.0 0.0 15.0" Properties=species:S:1:pos:R:3:forces:R:3 energy=1.4509602099 pbc="T T T"
O        0.00000000       0.00000000       0.00000000       4.52164417       5.67312550       0.00000000
H        1.13598089       0.00000000       0.00000000      -4.91709648      -0.09700468       0.00000000
H       -0.10485597       1.19987697       0.00000000       0.39545231      -5.57612082       0.00000000
