3
Lattice="15.0 0.0 0.0 0.0 15.0 0.0 0.0 0.0 15.0" Properties=species:S:1:pos:R:3:forces:R:3 energy=0.0336982321 pbc="T T T"
O        0.00000000       0.00000000       0.00000000      -0.57126612      -0.98573992       0.00000000
H        0.95152072       0.00000000       0.00000000       0.19865144       0.51765155       0.00000000
H       -0.34920120       0.88321570       0.00000000       0.37261468       0.46808842       0.00000000
