3
Lattice="15.0 0.0 0.0 0.0 15.0 0.0 0.0 0.0 15.0" Properties=species:S:1:pos:R:3:forces:R:3 energy=1.6748710969 pbc="T T T"
O        0.00000000       0.00000000       0.00000000     -21.01541377      -0.14242982       0.00000000
H        0.77771135       0.00000000       0.00000000      18.24048494       1.61427153       0.00000000
H       -0.62613649       0.78452863       0.00000000       2.77492883      -1.47184176       0.00000000
