3
Lattice="15.0 0.0 0.0 0.0 15.0 0.0 0.0 0.0 15.0" Properties=species:S:1:pos:R:3:forces:R:3 energy=0.1103113779 pbc="T T T"
O        0.00000000       0.00000000       0.00000000       2.98271340      -1.00521846       0.00000000
H        1.01651788       0.00000000       0.00000000      -2.33192574      -0.40521798       0.00000000
H       -0.13540926       0.92641197       0.00000000      -0.65078766       1.41043644       0.00000000
