3
Lattice="15.0 0.0 0.0 0.0 15.0 0.0 0.0 0.0 15.0" Properties=species:S:1:pos:R:3:forces:R:3 energy=0.0827505351 pbc="T T T"
O        0.00000000       0.00000000       0.00000000      -1.00308351      -2.03804399       0.00000000
H        0.93861569       0.00000000       0.00000000       0.85412833       0.69300164       0.00000000
H       -0.38963007       0.84853219       0.00000000       0.14895518       1.34504235       0.00000000
