3
Lattice="15.0 0.0 0.0 0.0 15.0 0.0 0.0 0.0 15.0" Properties=species:S:1:pos:R:3:forces:R:3 energy=0.1462314849 pbc="T T T"
O        0.00000000       0.00000000       0.00000000       1.01750947       1.15870038       0.00000000
H        0.96376096       0.00000000       0.00000000       0.22724099      -1.24855816       0.00000000
H        0.00215374       0.96655363       0.00000000      -1.24475046       0.08985783       0.00000000
