3
Lattice="15.0 0.0 0.0 0.0 15.0 0.0 0.0 0.0 15.0" Properties=species:S:1:pos:R:3:forces:R:3 energy=0.6453156054 pbc="T T T"
O        0.00000000       0.00000000       0.00000000       1.05867979       5.62453065       0.00000000
H        0.98030421       0.00000000       0.00000000      -0.66626288      -0.64598802       0.00000000
H       -0.03714301       1.14252651       0.00000000      -0.39241691      -4.97854263       0.00000000
