3
Lattice="15.0 0.0 0.0 0.0 15.0 0.0 0.0 0.0 15.0" Properties=species:S:1:pos:R:3:forces:R:3 energy=0.7765730401 pbc="T T T"
O        0.00000000       0.00000000       0.00000000       5.60460984       2.93551985       0.00000000
H        1.15369237       0.00000000       0.00000000      -5.06954250      -0.52092421       0.00000000
H       -0.02173891       1.02509643       0.00000000      -0.53506734      -2.41459565       0.00000000
