3
Lattice="15.0 0.0 0.0 0.0 15.0 0.0 0.0 0.0 15.0" Properties=species:S:1:pos:R:3:forces:R:3 energy=0.1303782104 pbc="T T T"
O        0.00000000       0.00000000       0.00000000      -1.55320595      -3.23805245       0.00000000
H        0.91753914       0.00000000       0.00000000       2.35190811       0.23476785       0.00000000
H       -0.29950111       0.85648749       0.00000000      -0.79870216       3.00328465       0.00000000
