3
Lattice="15.0 0.0 0.0 0.0 15.0 0.0 0.0 0.0 15.0" Properties=species:S:1:pos:R:3:forces:R:3 energy=0.0810443403 pbc="T T T"
O        0.00000000       0.00000000       0.00000000      -1.58432547       2.15209237       0.00000000
H        0.94553311       0.00000000       0.00000000       0.73316430       0.19206397       0.00000000
H       -0.27695561       0.97611366       0.00000000       0.85116117      -2.34415633       0.00000000
