3
Lattice="15.0 0.0 0.0 0.0 15.0 0.0 0.0 0.0 15.0" Properties=species:S:1:pos:R:3:forces:R:3 energy=0.0321290386 pbc="T T T"
O        0.00000000       0.00000000       0.00000000      -0.35008481      -0.61081727       0.00000000
H        0.95883194       0.00000000       0.00000000      -0.18757914       0.52944248       0.00000000
H       -0.35050298       0.89112210       0.00000000       0.53766400       0.08137479       0.00000000
