3
Lattice="15.0 0.0 0.0 0.0 15.0 0.0 0.0 0.0 15.0" Properties=species:S:1:pos:R:3:forces:R:3 energy=1.2815999748 pbc="T T T"
O        0.00000000       0.00000000       0.00000000       1.26618642       4.24824548       0.00000000
H        1.07952690       0.00000000       0.00000000      -4.20999850       0.87671116       0.00000000
H       -0.45234170       1.10899227       0.00000000       2.94381203      -5.12495659       0.00000000
