3
Lattice="15.0 0.0 0.0 0.0 15.0 0.0 0.0 0.0 15.0" Properties=species:S:1:pos:R:3:forces:R:3 energy=0.0245240276 pbc="T T T"
O        0.00000000       0.00000000       0.00000000       0.79577835       1.04216085       0.00000000
H        0.98105184       0.00000000       0.00000000      -1.04706112       0.00224519       0.00000000
H       -0.22763314       0.95487668       0.00000000       0.25128277      -1.04440605       0.00000000
