3
Lattice="15.0 0.0 0.0 0.0 15.0 0.0 0.0 0.0 15.0" Properties=species:S:1:pos:R:3:forces:R:3 energy=0.4763851578 pbc="T T T"
O        0.00000000       0.00000000       0.00000000      -0.26851545      -2.82329567       0.00000000
H        0.96176055       0.00000000       0.00000000      -0.86526178       1.62190617       0.00000000
H       -0.65950055       0.67700101       0.00000000       1.13377727       1.20138950       0.00000000
