3
Lattice="15.0 0.0 0.0 0.0 15.0 0.0 0.0 0.0 15.0" Properties=species:S:1:pos:R:3:forces:R:3 energy=0.0760886381 pbc="T T T"
O        0.00000000       0.00000000       0.00000000       0.34227585       2.43015180       0.00000000
H        0.97391254       0.00000000       0.00000000      -0.63307120      -0.15224136       0.00000000
H       -0.19212128       0.99508235       0.00000000       0.29079535      -2.27791044       0.00000000
