3
Lattice="15.0 0.0 0.0 0.0 15.0 0.0 0.0 0.0 15.0" Properties=species:S:1:pos:R:3:forces:R:3 energy=1.0503241139 pbc="T T T"
O        0.00000000       0.00000000       0.00000000     -14.48177110      -1.37199827       0.00000000
H        0.81095435       0.00000000       0.00000000      12.88888427       1.45163828       0.00000000
H       -0.58194566       0.76813900       0.00000000       1.59288684      -0.07964001       0.00000000
