3
Lattice="15.0 0.0 0.0 0.0 15.0 0.0 0.0 0.0 15.0" Properties=species:S:1:pos:R:3:forces:R:3 energy=0.0727768111 pbc="T T T"
O        0.00000000       0.00000000       0.00000000      -1.16748702      -1.78424863       0.00000000
H        0.93727083       0.00000000       0.00000000       0.95672717       0.65278900       0.00000000
H       -0.38123686       0.85635861       0.00000000       0.21075985       1.13145963       0.00000000
