3
Lattice="15.0 0.0 0.0 0.0 15.0 0.0 0.0 0.0 15.0" Properties=species:S:1:pos:R:3:forces:R:3 energy=0.2493583167 pbc="T T T"
O        0.00000000       0.00000000       0.00000000      -4.72703587       1.77574167       0.00000000
H        0.91200894       0.00000000       0.00000000       2.72298666       0.82575100       0.00000000
H       -0.42994876       0.93390964       0.00000000       2.00404921      -2.60149267       0.00000000
