3
Lattice="15.0 0.0 0.0 0.0 15.0 0.0 0.0 0.0 15.0" Properties=species:S:1:pos:R:3:forces:R:3 energy=0.529367593 pbc="T T T"
O        0.00000000       0.00000000       0.00000000       3.74797063       4.51425497       0.00000000
H        1.05780414       0.00000000       0.00000000      -3.38758305      -0.54312976       0.00000000
H       -0.04659766       1.08072479       0.00000000      -0.36038759      -3.97112516       0.00000000
