3
Lattice="15.0 0.0 0.0 0.0 15.0 0.0 0.0 0.0 15.0" Properties=species:S:1:pos:R:3:forces:R:3 energy=0.3920982162 pbc="T T T"
O        0.00000000       0.00000000       0.00000000      -0.29809837      -0.61895928       0.00000000
H        0.93515707       0.00000000       0.00000000       2.13750202      -2.10811918       0.00000000
H        0.09981355       0.92379028       0.00000000      -1.83940365       2.72707847       0.00000000
