3
Lattice="15.0 0.0 0.0 0.0 15.0 0.0 0.0 0.0 15.0" Properties=species:S:1:pos:R:3:forces:R:3 energy=0.037568328 pbc="T T T"
O        0.00000000       0.00000000       0.00000000      -2.26728206       0.42466216       0.00000000
H        0.92480155       0.00000000       0.00000000       1.98025893       0.12599502       0.00000000
H       -0.27314619       0.92999583       0.00000000       0.28702313      -0.55065718       0.00000000
