3
Lattice="15.0 0.0 0.0 0.0 15.0 0.0 0.0 0.0 15.0" Properties=species:S:1:pos:R:3:forces:R:3 energy=0.971281152 pbc="T T T"
O        0.00000000       0.00000000       0.00000000       6.23616342       0.19482980       0.00000000
H        1.19792458       0.00000000       0.00000000      -5.38146955      -0.69445653       0.00000000
H        0.02562749       0.95835763       0.00000000      -0.85469387       0.49962672       0.00000000
