3
Lattice="15.0 0.0 0.0 0.0 15.0 0.0 0.0 0.0 15.0" Properties=species:S:1:pos:R:3:forces:R:3 energy=1.3801852997 pbc="T T T"
O        0.00000000       0.00000000       0.00000000      -4.32167684       6.60867762       0.00000000
H        0.88274739       0.00000000       0.00000000       5.82701134      -1.38131827       0.00000000
H        0.11633204       1.21399228       0.00000000      -1.50533451      -5.22735936       0.00000000
