3
Lattice="15.0 0.0 0.0 0.0 15.0 0.0 0.0 0.0 15.0" Properties=species:S:1:pos:R:3:forces:R:3 energy=0.6365841002 pbc="T T T"
O        0.00000000       0.00000000       0.00000000       1.83622963       3.88290949       0.00000000
H        1.05837444       0.00000000       0.00000000      -3.72709902       0.51517506       0.00000000
H       -0.32970021       1.05522758       0.00000000       1.89086940      -4.39808461       0.00000000
