3
Lattice="15.0 0.0 0.0 0.0 15.0 0.0 0.0 0.0 15.0" Properties=species:S:1:pos:R:3:forces:R:3 energy=0.2608452033 pbc="T T T"
O        0.00000000       0.00000000       0.00000000      -1.11691546      -4.43953271       0.00000000
H        0.91753554       0.00000000       0.00000000       2.66663468      -0.68001294       0.00000000
H       -0.14226693       0.87259551       0.00000000      -1.54971928       5.11954565       0.00000000
