3
Lattice="15.0 0.0 0.0 0.0 15.0 0.0 0.0 0.0 15.0" Properties=species:S:1:pos:R:3:forces:R:3 energy=0.0330973258 pbc="T T T"
O        0.00000000       0.00000000       0.00000000      -0.88101277      -1.32977822       0.00000000
H        0.94133816       0.00000000       0.00000000       0.81515419       0.38580229       0.00000000
H       -0.32310084       0.88327194       0.00000000       0.06585858       0.94397588       0.00000000
