3
Lattice="15.0 0.0 0.0 0.0 15.0 0.0 0.0 0.0 15.0" Properties=species:S:1:pos:R:3:forces:R:3 energy=0.0342364189 pbc="T T T"
O        0.00000000       0.00000000       0.00000000       0.33893743       1.23490873       0.00000000
H        0.97675322       0.00000000       0.00000000      -0.90035509       0.16824906       0.00000000
H       -0.26460741       0.95405578       0.00000000       0.56141766      -1.40315779       0.00000000
