3
Lattice="15.0 0.0 0.0 0.0 15.0 0.0 0.0 0.0 15.0" Properties=species:S:1:pos:R:3:forces:R:3 energy=0.505998686 pbc="T T T"
O        0.00000000       0.00000000       0.00000000       4.54202156       3.83997128       0.00000000
H        1.05932514       0.00000000       0.00000000      -3.21157738      -1.11962324       0.00000000
H        0.07344368       1.04163509       0.00000000      -1.33044424      -2.72034804       0.00000000
