3
Lattice="15.0 0.0 0.0 0.0 15.0 0.0 0.0 0.0 15.0" Properties=species:S:1:pos:R:3:forces:R:3 energy=0.3903051518 pbc="T T T"
O        0.00000000       0.00000000       0.00000000       3.84191452      -0.55512869       0.00000000
H        1.08906934       0.00000000       0.00000000      -4.61830983       0.62006507       0.00000000
H       -0.34880545       0.89895446       0.00000000       0.77639531      -0.06493638       0.00000000
