3
Lattice="15.0 0.0 0.0 0.0 15.0 0.0 0.0 0.0 15.0" Properties=species:S:1:pos:R:3:forces:R:3 energy=0.0231474063 pbc="T T T"
O        0.00000000       0.00000000       0.00000000      -0.77859124      -1.02287444       0.00000000
H        0.94456144       0.00000000       0.00000000       0.64690318       0.34875576       0.00000000
H       -0.31448959       0.89163724       0.00000000       0.13168806       0.67411863       0.00000000
