3
Lattice="15.0 0.0 0.0 0.0 15.0 0.0 0.0 0.0 15.0" Properties=species:S:1:pos:R:3:forces:R:3 energy=0.5752072544 pbc="T T T"
O        0.00000000       0.00000000       0.00000000      -6.87872051       4.36807982       0.00000000
H        0.86355253       0.00000000       0.00000000       7.41111272      -0.94333532       0.00000000
H       -0.07418685       1.05288657       0.00000000      -0.53239216      -3.42474450       0.00000000
