3
Lattice="15.0 0.0 0.0 0.0 15.0 0.0 0.0 0.0 15.0" Properties=species:S:1:pos:R:3:forces:R:3 energy=0.1272272543 pbc="T T T"
O        0.00000000       0.00000000       0.00000000      -0.53308584      -0.24771151       0.00000000
H        0.97025420       0.00000000       0.00000000      -0.88422871       0.94496622       0.00000000
H       -0.45027990       0.86841498       0.00000000       1.41731455      -0.69725466       0.00000000
