3
Lattice="15.0 0.0 0.0 0.0 15.0 0.0 0.0 0.0 15.0" Properties=species:S:1:pos:R:3:forces:R:3 energy=0.1497418082 pbc="T T T"
O        0.00000000       0.00000000       0.00000000       3.43326088      -0.66160537       0.00000000
H        1.04043288       0.00000000       0.00000000      -3.21232079      -0.06037118       0.00000000
H       -0.19653249       0.92651344       0.00000000      -0.22094014       0.72197655       0.00000000
