3
Lattice="15.0 0.0 0.0 0.0 15.0 0.0 0.0 0.0 15.0" Properties=species:S:1:pos:R:3:forces:R:3 energy=0.0523977034 pbc="T T T"
O        0.00000000       0.00000000       0.00000000       0.59527108      -2.47160120       0.00000000
H        0.95938143       0.00000000       0.00000000      -0.18866841       0.31352155       0.00000000
H       -0.30317642       0.86937978       0.00000000      -0.40660267       2.15807965       0.00000000
