3
Lattice="15.0 0.0 0.0 0.0 15.0 0.0 0.0 0.0 15.0" Properties=species:S:1:pos:R:3:forces:R:3 energy=0.1426167408 pbc="T T T"
O        0.00000000       0.00000000       0.00000000      -0.36291719       2.34512168       0.00000000
H        0.97766571       0.00000000       0.00000000      -0.98054202       0.42868450       0.00000000
H       -0.32284560       0.97853453       0.00000000       1.34345922      -2.77380613       0.00000000
