3
Lattice="15.0 0.0 0.0 0.0 15.0 0.0 0.0 0.0 15.0" Properties=species:S:1:pos:R:3:forces:R:3 energy=0.0666851314 pbc="T T T"
O        0.00000000       0.00000000       0.00000000      -0.81216734      -0.86351898       0.00000000
H        0.95292880       0.00000000       0.00000000       0.05000016       0.74528978       0.00000000
H       -0.40109645       0.86960812       0.00000000       0.76216718       0.11822920       0.00000000
