3
Lattice="15.0 0.0 0.0 0.0 15.0 0.0 0.0 0.0 15.0" Properties=species:S:1:pos:R:3:forces:R:3 energy=0.402596456 pbc="T T T"
O        0.00000000       0.00000000       0.00000000       4.39574038      -2.16148718       0.00000000
H        1.05482554       0.00000000       0.00000000      -3.15269163      -1.13743241       0.00000000
H        0.01939867       0.91371970       0.00000000      -1.24304875       3.29891959       0.00000000
