3
Lattice="15.0 0.0 0.0 0.0 15.0 0.0 0.0 0.0 15.0" Properties=species:S:1:pos:R:3:forces:R:3 energy=0.6445390441 pbc="T T T"
O        0.00000000       0.00000000       0.00000000      -6.03449942      -3.43734960       0.00000000
H        0.86060749       0.00000000       0.00000000       7.80832350      -1.62360557       0.00000000
H       -0.03539970       0.88872591       0.00000000      -1.77382409       5.06095522       0.00000000
