3
Lattice="15.0 0.0 0.0 0.0 15.0 0.0 0.0 0.0 15.0" Properties=species:S:1:pos:R:3:forces:R:3 energy=0.0595457345 pbc="T T T"
O        0.00000000       0.00000000       0.00000000      -0.53594151      -2.41972860       0.00000000
H        0.93841165       0.00000000       0.00000000       1.01565621       0.23738482       0.00000000
H       -0.29372458       0.87185847       0.00000000      -0.47971470       2.18234378       0.00000000
