3
Lattice="15.0 0.0 0.0 0.0 15.0 0.0 0.0 0.0 15.0" Properties=species:S:1:pos:R:3:forces:R:3 energy=0.3149436972 pbc="T T T"
O        0.00000000       0.00000000       0.00000000       4.48477649      -0.22594562       0.00000000
H        1.06585980       0.00000000       0.00000000      -3.56471249      -0.78767793       0.00000000
H       -0.03087138       0.94650614       0.00000000      -0.92006399       1.01362355       0.00000000
