3
Lattice="15.0 0.0 0.0 0.0 15.0 0.0 0.0 0.0 15.0" Properties=species:S:1:pos:R:3:forces:R:3 energy=0.7273402876 pbc="T T T"
O        0.00000000       0.00000000       0.00000000      -3.05323478      -2.73581092       0.00000000
H        0.89705643       0.00000000       0.00000000       4.98834440      -2.68252318       0.00000000
H        0.12743454       0.88671552       0.00000000      -1.93510962       5.41833405       0.00000000
