3
Lattice="15.0 0.0 0.0 0.0 15.0 0.0 0.0 0.0 15.0" Properties=species:S:1:pos:R:3:forces:R:3 energy=0.1154540359 pbc="T T T"
O        0.00000000       0.00000000       0.00000000      -2.52113080       2.22358573       0.00000000
H        0.93333287       0.00000000       0.00000000       1.43631306       0.30534019       0.00000000
H       -0.30500218       0.97372301       0.00000000       1.08481774      -2.52892592       0.00000000
