3
Lattice="15.0 0.0 0.0 0.0 15.0 0.0 0.0 0.0 15.0" Properties=species:S:1:pos:R:3:forces:R:3 energy=0.0436637301 pbc="T T T"
O        0.00000000       0.00000000       0.00000000       1.72497028       0.57760703       0.00000000
H        0.99041199       0.00000000       0.00000000      -1.31337699      -0.41888525       0.00000000
H       -0.13899706       0.95435730       0.00000000      -0.41159334      -0.15872183       0.00000000
