3
Lattice="15.0 0.0 0.0 0.0 15.0 0.0 0.0 0.0 15.0" Properties=species:S:1:pos:R:3:forces:R:3 energy=0.8172961554 pbc="T T T"
O        0.00000000       0.00000000       0.00000000       2.96239849      -2.94658414       0.00000000
H        1.04928851       0.00000000       0.00000000      -4.25303910       1.65210698       0.00000000
H       -0.70284185       0.63822895       0.00000000       1.29064061       1.29447716       0.00000000
