3
Lattice="15.0 0.0 0.0 0.0 15.0 0.0 0.0 0.0 15.0" Properties=species:S:1:pos:R:3:forces:R:3 energy=0.9347244699 pbc="T T T"
O        0.00000000       0.00000000       0.00000000      -0.32292115       5.29105065       0.00000000
H        0.98824338       0.00000000       0.00000000      -1.23011285       0.30108517       0.00000000
H       -0.27158648       1.16951329       0.00000000       1.55303400      -5.59213582       0.00000000
