3
Lattice="15.0 0.0 0.0 0.0 15.0 0.0 0.0 0.0 15.0" Properties=species:S:1:pos:R:3:forces:R:3 energy=0.0819129441 pbc="T T T"
O        0.00000000       0.00000000       0.00000000      -1.57037281       2.06455475       0.00000000
H        0.94701025       0.00000000       0.00000000       0.62774809       0.25519928       0.00000000
H       -0.29064772       0.97165664       0.00000000       0.94262466      -2.31975403       0.00000000
