3
Lattice="15.0 0.0 0.0 0.0 15.0 0.0 0.0 0.0 15.0" Properties=species:S:1:pos:R:3:forces:R:3 energy=0.025863704 pbc="T T T"
O        0.00000000       0.00000000       0.00000000       0.64937879      -0.07668180       0.00000000
H        0.96354857       0.00000000       0.00000000      -0.07112801      -0.48169784       0.00000000
H       -0.14192762       0.93971131       0.00000000      -0.57825078       0.55837964       0.00000000
