3
Lattice="15.0 0.0 0.0 0.0 15.0 0.0 0.0 0.0 15.0" Properties=species:S:1:pos:R:3:forces:R:3 energy=0.0283940908 pbc="T T T"
O        0.00000000       0.00000000       0.00000000       1.04829824      -0.39032481       0.00000000
H        0.98504011       0.00000000       0.00000000      -1.36345110       0.31428696       0.00000000
H       -0.29621228       0.91086549       0.00000000       0.31515291       0.07603789       0.00000000
