3
Lattice="15.0 0.0 0.0 0.0 15.0 0.0 0.0 0.0 15.0" Properties=species:S:1:pos:R:3:forces:R:3 energy=1.1072244554 pbc="T T T"
O        0.00000000       0.00000000       0.00000000      -6.75199782      -9.15914163       0.00000000
H        0.82994815       0.00000000       0.00000000      10.44005817       0.51470722       0.00000000
H       -0.37034995       0.75223430       0.00000000      -3.68806035       8.64443436       0.00000000
