3
Lattice="15.0 0.0 0.0 0.0 15.0 0.0 0.0 0.0 15.0" Properties=species:S:1:pos:R:3:forces:R:3 energy=0.1588126393 pbc="T T T"
O        0.00000000       0.00000000       0.00000000      -0.63098053      -0.38036795       0.00000000
H        0.97048018       0.00000000       0.00000000      -0.93345369       1.04860281       0.00000000
H       -0.47770110       0.85453563       0.00000000       1.56443422      -0.66823486       0.00000000
