3
Lattice="15.0 0.0 0.0 0.0 15.0 0.0 0.0 0.0 15.0" Properties=species:S:1:pos:R:3:forces:R:3 energy=0.0296665497 pbc="T T T"
O        0.00000000       0.00000000       0.00000000       1.03775722       1.13657366       0.00000000
H        0.98451924       0.00000000       0.00000000      -1.16577600      -0.09329592       0.00000000
H       -0.20584774       0.96005227       0.00000000       0.12801878      -1.04327774       0.00000000
