3
Lattice="15.0 0.0 0.0 0.0 15.0 0.0 0.0 0.0 15.0" Properties=species:S:1:pos:R:3:forces:R:3 energy=0.0627448737 pbc="T T T"
O        0.00000000       0.00000000       0.00000000       0.86930484       1.07660013       0.00000000
H        0.99247709       0.00000000       0.00000000      -1.63906438       0.31926704       0.00000000
H       -0.29458284       0.94583266       0.00000000       0.76975960      -1.39586717       0.00000000
