3
Lattice="15.0 0.0 0.0 0.0 15.0 0.0 0.0 0.0 15.0" Properties=species:S:1:pos:R:3:forces:R:3 energy=1.0412960781 pbc="T T T"
O        0.00000000       0.00000000       0.00000000       1.42269222       2.81981198       0.00000000
H        1.10069066       0.00000000       0.00000000      -4.78899418       1.12125970       0.00000000
H       -0.52720828       0.98384686       0.00000000       3.36630202      -3.94107163       0.00000000
