3
Lattice="15.0 0.0 0.0 0.0 15.0 0.0 0.0 0.0 15.0" Properties=species:S:1:pos:R:3:forces:R:3 energy=0.7466545947 pbc="T T T"
O        0.00000000       0.00000000       0.00000000      -0.56073220       3.62657810       0.00000000
H        1.01276227       0.00000000       0.00000000      -2.42704134       0.94934244       0.00000000
H       -0.46693660       1.03693366       0.00000000       2.98777359      -4.57592054       0.00000000
