3
Lattice="15.0 0.0 0.0 0.0 15.0 0.0 0.0 0.0 15.0" Properties=species:S:1:pos:R:3:forces:R:3 energy=0.0631215283 pbc="T T T"
O        0.00000000       0.00000000       0.00000000       1.34029059       1.24421942       0.00000000
H        0.97885874       0.00000000       0.00000000      -0.70442984      -0.68214176       0.00000000
H       -0.09025591       0.97032183       0.00000000      -0.63586075      -0.56207766       0.00000000
