3
Lattice="15.0 0.0 0.0 0.0 15.0 0.0 0.0 0.0 15.0" Properties=species:S:1:pos:R:3:forces:R:3 energy=0.0066419048 pbc="T T T"
O        0.00000000       0.00000000       0.00000000      -0.01236578      -0.37510361       0.00000000
H        0.96101293       0.00000000       0.00000000      -0.19938457       0.24099645       0.00000000
H       -0.28697592       0.91199476       0.00000000       0.21175029       0.13410716       0.00000000
