3
Lattice="15.0 0.0 0.0 0.0 15.0 0.0 0.0 0.0 15.0" Properties=species:S:1:pos:R:3:forces:R:3 energy=0.1479272604 pbc="T T T"
O        0.00000000       0.00000000       0.00000000       1.49622689      -1.90748892       0.00000000
H        0.99532625       0.00000000       0.00000000      -2.03818298       0.89425391       0.00000000
H       -0.43013323       0.83816441       0.00000000       0.54195610       1.01323501       0.00000000
