3
Lattice="15.0 0.0 0.0 0.0 15.0 0.0 0.0 0.0 15.0" Properties=species:S:1:pos:R:3:forces:R:3 energy=0.0062089063 pbc="T T T"
O        0.00000000       0.00000000       0.00000000       0.15255869      -0.82354072       0.00000000
H        0.95769013       0.00000000       0.00000000       0.03744741       0.02279042       0.00000000
H       -0.24361341       0.91179888       0.00000000      -0.19000616       0.80075030       0.00000000
