3
Lattice="15.0 0.0 0.0 0.0 15.0 0.0 0.0 0.0 15.0" Properties=species:S:1:pos:R:3:forces:R:3 energy=0.0095340942 pbc="T T T"
O        0.00000000       0.00000000       0.00000000      -0.22971907      -0.27532697       0.00000000
H        0.94969589       0.00000000       0.00000000       0.56749118      -0.22650993       0.00000000
H       -0.19676089       0.92919871       0.00000000      -0.33777210       0.50183684       0.00000000
