3
Lattice="15.0 0.0 0.0 0.0 15.0 0.0 0.0 0.0 15.0" Properties=species:S:1:pos:R:3:forces:R:3 energy=0.0217214508 pbc="T T T"
O        0.00000000       0.00000000       0.00000000      -0.24874854      -0.38829574       0.00000000
H        0.96045403       0.00000000       0.00000000      -0.23573093       0.43779341       0.00000000
H       -0.32975537       0.90159145       0.00000000       0.48447947      -0.04949762       0.00000000
