3
Lattice="15.0 0.0 0.0 0.0 15.0 0.0 0.0 0.0 15.0" Properties=species:S:1:pos:R:3:forces:R:3 energy=1.2217584825 pbc="T T T"
O        0.00000000       0.00000000       0.00000000       0.31653046       5.94762000       0.00000000
H        0.98427462       0.00000000       0.00000000      -0.92303187      -0.09142091       0.00000000
H       -0.14420270       1.24401435       0.00000000       0.60650141      -5.85619909       0.00000000
