3
Lattice="15.0 0.0 0.0 0.0 15.0 0.0 0.0 0.0 15.0" Properties=species:S:1:pos:R:3:forces:R:3 energy=0.0607654495 pbc="T T T"
O        0.00000000       0.00000000       0.00000000       1.01341730       1.50291155       0.00000000
H        0.97286399       0.00000000       0.00000000      -0.42970646      -0.66675761       0.00000000
H       -0.09466584       0.97567019       0.00000000      -0.58371083      -0.83615394       0.00000000
