3
Lattice="15.0 0.0 0.0 0.0 15.0 0.0 0.0 0.0 15.0" Properties=species:S:1:pos:R:3:forces:R:3 energy=0.0132491069 pbc="T T T"
O        0.00000000       0.00000000       0.00000000      -0.20454375       1.04353444       0.00000000
H        0.95582422       0.00000000       0.00000000       0.25965182      -0.22008011       0.00000000
H       -0.19136370       0.95772848       0.00000000      -0.05510813      -0.82345433       0.00000000
