3
Lattice="15.0 0.0 0.0 0.0 15.0 0.0 0.0 0.0 15.0" Properties=species:S:1:pos:R:3:forces:R:3 energy=0.1481487094 pbc="T T T"
O        0.00000000       0.00000000       0.00000000       2.52656045      -0.70767591       0.00000000
H        0.99811568       0.00000000       0.00000000      -1.42513066      -0.96762963       0.00000000
H       -0.03810427       0.93482361       0.00000000      -1.10142985       1.67530554       0.00000000
