3
Lattice="15.0 0.0 0.0 0.0 15.0 0.0 0.0 0.0 15.0" Properties=species:S:1:pos:R:3:forces:R:3 energy=1.4718298001 pbc="T T T"
O        0.00000000       0.00000000       0.00000000       4.30735291       6.34868441       0.00000000
H        1.03558712       0.00000000       0.00000000      -2.47829795      -1.18395423       0.00000000
H        0.19918601       1.23278404       0.00000000      -1.82905496      -5.16473018       0.00000000
