3
Lattice="15.0 0.0 0.0 0.0 15.0 0.0 0.0 0.0 15.0" Properties=species:S:1:pos:R:3:forces:R:3 energy=0.0652624984 pbc="T T T"
O        0.00000000       0.00000000       0.00000000       1.11684665      -2.46737703       0.00000000
H        0.97184451       0.00000000       0.00000000      -0.86241320       0.45780252       0.00000000
H       -0.33053757       0.86202113       0.00000000      -0.25443340       2.00957451       0.00000000
