3
Lattice="15.0 0.0 0.0 0.0 15.0 0.0 0.0 0.0 15.0" Properties=species:S:1:pos:R:3:forces:R:3 energy=0.0856311759 pbc="T T T"
O        0.00000000       0.00000000       0.00000000       1.40375249       2.20678506       0.00000000
H        0.98669529       0.00000000       0.00000000      -1.09246215      -0.50943554       0.00000000
H       -0.11392373       0.99357163       0.00000000      -0.31129034      -1.69734952       0.00000000
