3
Lattice="15.0 0.0 0.0 0.0 15.0 0.0 0.0 0.0 15.0" Properties=species:S:1:pos:R:3:forces:R:3 energy=0.1064431324 pbc="T T T"
O        0.00000000       0.00000000       0.00000000      -1.83747810      -2.04900960       0.00000000
H        0.92555639       0.00000000       0.00000000       1.66692328       0.72618143       0.00000000
H       -0.39925431       0.84416850       0.00000000       0.17055483       1.32282816       0.00000000
