3
Lattice="15.0 0.0 0.0 0.0 15.0 0.0 0.0 0.0 15.0" Properties=species:S:1:pos:R:3:forces:R:3 energy=0.0229397753 pbc="T T T"
O        0.00000000       0.00000000       0.00000000      -1.42320295       0.74311051       0.00000000
H        0.94142631       0.00000000       0.00000000       0.92270169       0.20955174       0.00000000
H       -0.28479436       0.93624212       0.00000000       0.50050126      -0.95266225       0.00000000
