3
Lattice="15.0 0.0 0.0 0.0 15.0 0.0 0.0 0.0 15.0" Properties=species:S:1:pos:R:3:forces:R:3 energy=0.055061543 pbc="T T T"
O        0.00000000       0.00000000       0.00000000      -0.67676409      -2.22475327       0.00000000
H        0.93594164       0.00000000       0.00000000       1.21966934       0.09522059       0.00000000
H       -0.26662100       0.88165885       0.00000000      -0.54290530       2.12953273       0.00000000
