3
Lattice="15.0 0.0 0.0 0.0 15.0 0.0 0.0 0.0 15.0" Properties=species:S:1:pos:R:3:forces:R:3 energy=0.12759534 pbc="T T T"
O        0.00000000       0.00000000       0.00000000      -1.95446032      -2.84922937       0.00000000
H        0.91550135       0.00000000       0.00000000       2.42249557       0.46548050       0.00000000
H       -0.34535294       0.84841181       0.00000000      -0.46803530       2.38374887       0.00000000
