3
Lattice="15.0 0.0 0.0 0.0 15.0 0.0 0.0 0.0 15.0" Properties=species:S:1:pos:R:3:forces:R:3 energy=0.0147624599 pbc="T T T"
O        0.00000000       0.00000000       0.00000000       1.14590857      -0.26397410       0.00000000
H        0.97739185       0.00000000       0.00000000      -0.84033878      -0.20065711       0.00000000
H       -0.19064334       0.93170031       0.00000000      -0.30556979       0.46463121       0.00000000
