3
Lattice="15.0 0.0 0.0 0.0 15.0 0.0 0.0 0.0 15.0" Properties=species:S:1:pos:R:3:forces:R:3 energy=0.1247507624 pbc="T T T"
O        0.00000000       0.00000000       0.00000000      -0.63266841       2.74078862       0.00000000
H        0.94243241       0.00000000       0.00000000       1.23678137      -0.80094457       0.00000000
H       -0.07606502       1.00524548       0.00000000      -0.60411296      -1.93984410       0.00000000
