3
Lattice="15.0 0.0 0.0 0.0 15.0 0.0 0.0 0.0 15.0" Properties=species:S:1:pos:R:3:forces:R:3 energy=0.0242112981 pbc="T T T"
O        0.00000000       0.00000000       0.00000000      -0.67272792      -0.63254459       0.00000000
H        0.93986934       0.00000000       0.00000000       1.14260897      -0.27527503       0.00000000
H       -0.19254307       0.92260998       0.00000000      -0.46988105       0.90781962       0.00000000
