3
Lattice="15.0 0.0 0.0 0.0 15.0 0.0 0.0 0.0 15.0" Properties=species:S:1:pos:R:3:forces:R:3 energy=0.1296854275 pbc="T T T"
O        0.00000000       0.00000000       0.00000000      -2.18120272      -2.74112230       0.00000000
H        0.91281360       0.00000000       0.00000000       2.62201738       0.44982541       0.00000000
H       -0.34290319       0.85089334       0.00000000      -0.44081471       2.29129690       0.00000000
