3
Lattice="15.0 0.0 0.0 0.0 15.0 0.0 0.0 0.0 15.0" Properties=species:S:1:pos:R:3:forces:R:3 energy=0.2399533433 pbc="T T T"
O        0.00000000       0.00000000       0.00000000      -3.14997330      -2.59742539       0.00000000
H        0.89494562       0.00000000       0.00000000       4.37972379      -0.68802414       0.00000000
H       -0.14750338       0.89478242       0.00000000      -1.22975048       3.28544952       0.00000000
