3
Lattice="15.0 0.0 0.0 0.0 15.0 0.0 0.0 0.0 15.0" Properties=species:S:1:pos:R:3:forces:R:3 energy=0.0516379642 pbc="T T T"
O        0.00000000       0.00000000       0.00000000       1.69510705      -2.10820619       0.00000000
H        0.98357095       0.00000000       0.00000000      -1.27799859       0.14513005       0.00000000
H       -0.26117159       0.88694917       0.00000000      -0.41710846       1.96307614       0.00000000
