3
Lattice="15.0 0.0 0.0 0.0 15.0 0.0 0.0 0.0 15.0" Properties=species:S:1:pos:R:3:forces:R:3 energy=0.0516786561 pbc="T T T"
O        0.00000000       0.00000000       0.00000000       1.25598135      -0.53378302       0.00000000
H        0.97273227       0.00000000       0.00000000      -0.47631174      -0.61297499       0.00000000
H       -0.11502531       0.93394269       0.00000000      -0.77966961       1.14675796       0.00000000
