3
Lattice="15.0 0.0 0.0 0.0 15.0 0.0 0.0 0.0 15.0" Properties=species:S:1:pos:R:3:forces:R:3 energy=0.0571518645 pbc="T T T"
O        0.00000000       0.00000000       0.00000000      -0.47030600      -0.29518428       0.00000000
H        0.96276470       0.00000000       0.00000000      -0.42890248       0.67740327       0.00000000
H       -0.38429353       0.88863063       0.00000000       0.89920853      -0.38221899       0.00000000
