3
Lattice="15.0 0.0 0.0 0.0 15.0 0.0 0.0 0.0 15.0" Properties=species:S:1:pos:R:3:forces:R:3 energy=1.2754413198 pbc="T T T"
O        0.00000000       0.00000000       0.00000000       6.13764786      -3.20910413       0.00000000
H        1.20566682       0.00000000       0.00000000      -5.13460306      -1.22903746       0.00000000
H        0.13200785       0.89322050       0.00000000      -1.00304479       4.43814164       0.00000000
