3
Lattice="15.0 0.0 0.0 0.0 15.0 0.0 0.0 0.0 15.0" Properties=species:S:1:pos:R:3:forces:R:3 energy=0.1174693601 pbc="T T T"
O        0.00000000       0.00000000       0.00000000      -1.50197639      -2.58905485       0.00000000
H        0.92629573       0.00000000       0.00000000       1.61121588       0.70205121       0.00000000
H       -0.39304394       0.83640351       0.00000000      -0.10923949       1.88700364       0.00000000
