3
Lattice="15.0 0.0 0.0 0.0 15.0 0.0 0.0 0.0 15.0" Properties=species:S:1:pos:R:3:forces:R:3 energy=0.8485223311 pbc="T T T"
O        0.00000000       0.00000000       0.00000000     -10.49047413      -1.76033391       0.00000000
H        0.84408680       0.00000000       0.00000000       8.51192730       1.69570232       0.00000000
H       -0.66605232       0.70166240       0.00000000       1.97854683       0.06463160       0.00000000
