3
Lattice="15.0 0.0 0.0 0.0 15.0 0.0 0.0 0.0 15.0" Properties=species:S:1:pos:R:3:forces:R:3 energy=0.5496590827 pbc="T T T"
O        0.00000000       0.00000000       0.00000000       4.89017460      -5.27923910       0.00000000
H        1.06658775       0.00000000       0.00000000      -3.59348778      -0.85884764       0.00000000
H       -0.03583014       0.87605187       0.00000000      -1.29668682       6.13808674       0.00000000
