3
Lattice="15.0 0.0 0.0 0.0 15.0 0.0 0.0 0.0 15.0" Properties=species:S:1:pos:R:3:forces:R:3 energy=1.0456214313 pbc="T T T"
O        0.00000000       0.00000000       0.00000000       4.05672535       4.57929013       0.00000000
H        1.14046736       0.00000000       0.00000000      -5.10996319       0.16579067       0.00000000
H       -0.20517105       1.10386469       0.00000000       1.05323789      -4.74508080       0.00000000
