3
Lattice="15.0 0.0 0.0 0.0 15.0 0.0 0.0 0.0 15.0" Properties=species:S:1:pos:R:3:forces:R:3 energy=0.80153399 pbc="T T T"
O        0.00000000       0.00000000       0.00000000      -3.97852079       5.74148469       0.00000000
H        0.90437375       0.00000000       0.00000000       3.78497114      -0.43504999       0.00000000
H       -0.11625238       1.15442139       0.00000000       0.19354965      -5.30643470       0.00000000
