3
Lattice="15.0 0.0 0.0 0.0 15.0 0.0 0.0 0.0 15.0" Properties=species:S:1:pos:R:3:forces:R:3 energy=0.0471828862 pbc="T T T"
O        0.00000000       0.00000000       0.00000000      -1.44589937      -1.51938570       0.00000000
H        0.92754143       0.00000000       0.00000000       1.75820381       0.11242426       0.00000000
H       -0.27208710       0.89187944       0.00000000      -0.31230444       1.40696143       0.00000000
