3
Lattice="15.0 0.0 0.0 0.0 15.0 0.0 0.0 0.0 15.0" Properties=species:S:1:pos:R:3:forces:R:3 energy=0.040847436 pbc="T T T"
O        0.00000000       0.00000000       0.00000000      -0.47386950       1.88275962       0.00000000
H        0.95747116       0.00000000       0.00000000       0.14686899      -0.07583452       0.00000000
H       -0.21683640       0.97613847       0.00000000       0.32700051      -1.80692510       0.00000000
