3
Lattice="15.0 0.0 0.0 0.0 15.0 0.0 0.0 0.0 15.0" Properties=species:S:1:pos:R:3:forces:R:3 energy=0.1038450818 pbc="T T T"
O        0.00000000       0.00000000       0.00000000       1.39972007      -1.89368219       0.00000000
H        0.98909487       0.00000000       0.00000000      -1.72394240       0.73760958       0.00000000
H       -0.39190241       0.85280449       0.00000000       0.32422228       1.15607261       0.00000000
