3
Lattice="15.0 0.0 0.0 0.0 15.0 0.0 0.0 0.0 15.0" Properties=species:S:1:pos:R:3:forces:R:3 energy=0.4718098 pbc="T T T"
O        0.00000000       0.00000000       0.00000000       4.45633802      -8.09137140       0.00000000
H        0.98433753       0.00000000       0.00000000      -1.68628200       0.80029578       0.00000000
H       -0.39567638       0.75707682       0.00000000      -2.77005602       7.29107562       0.00000000
