3
Lattice="15.0 0.0 0.0 0.0 15.0 0.0 0.0 0.0 15.0" Properties=species:S:1:pos:R:3:forces:R:3 energy=0.0140140298 pbc="T T T"
O        0.00000000       0.00000000       0.00000000      -0.40007037      -0.39881089       0.00000000
H        0.95568651       0.00000000       0.00000000       0.04261760       0.35346885       0.00000000
H       -0.31249017       0.90539650       0.00000000       0.35745277       0.04534204       0.00000000
