3
Lattice="15.0 0.0 0.0 0.0 15.0 0.0 0.0 0.0 15.0" Properties=species:S:1:pos:R:3:forces:R:3 energy=0.1369967786 pbc="T T T"
O        0.00000000       0.00000000       0.00000000      -0.35490296      -0.53589986       0.00000000
H        0.97231209       0.00000000       0.00000000      -1.00848144       0.98774461       0.00000000
H       -0.46059734       0.85706899       0.00000000       1.36338440      -0.45184475       0.00000000
