3
Lattice="15.0 0.0 0.0 0.0 15.0 0.0 0.0 0.0 15.0" Properties=species:S:1:pos:R:3:forces:R:3 energy=0.0859555438 pbc="T T T"
O        0.00000000       0.00000000       0.00000000       1.14370328      -0.58394470       0.00000000
H        0.99513315       0.00000000       0.00000000      -1.90615143       0.65357124       0.00000000
H       -0.37271244       0.88706506       0.00000000       0.76244809      -0.06962654       0.00000000
