3
Lattice="15.0 0.0 0.0 0.0 15.0 0.0 0.0 0.0 15.0" Properties=species:S:1:pos:R:3:forces:R:3 energy=0.0420886562 pbc="T T T"
O        0.00000000       0.00000000       0.00000000      -1.00516174      -0.97803767       0.00000000
H        0.93265861       0.00000000       0.00000000       1.58806473      -0.31030242       0.00000000
H       -0.19001462       0.91646421       0.00000000      -0.58290294       1.28834009       0.00000000
