3
Lattice="15.0 0.0 0.0 0.0 15.0 0.0 0.0 0.0 15.0" Properties=species:S:1:pos:R:3:forces:R:3 energy=1.4050737749 pbc="T T T"
O        0.00000000       0.00000000       0.00000000       2.80024953       3.85096002       0.00000000
H        1.16378272       0.00000000       0.00000000      -5.51521820       0.80192375       0.00000000
H       -0.42192732       1.06684243       0.00000000       2.71496867      -4.65288378       0.00000000
