3
Lattice="15.0 0.0 0.0 0.0 15.0 0.0 0.0 0.0 15.0" Properties=species:S:1:pos:R:3:forces:R:3 energy=0.8134362993 pbc="T T T"
O        0.00000000       0.00000000       0.00000000     -13.40156413       1.65857752       0.00000000
H        0.82211213       0.00000000       0.00000000      11.69479742       0.71921585       0.00000000
H       -0.41639640       0.92653592       0.00000000       1.70676670      -2.37779332       0.00000000
