3
Lattice="15.0 0.0 0.0 0.0 15.0 0.0 0.0 0.0 15.0" Properties=species:S:1:pos:R:3:forces:R:3 energy=0.1154248435 pbc="T T T"
O        0.00000000       0.00000000       0.00000000       2.17401489      -2.61243807       0.00000000
H        0.98628735       0.00000000       0.00000000      -1.15676264      -0.50027176       0.00000000
H       -0.13565053       0.90012328       0.00000000      -1.01725225       3.11270983       0.00000000
