3
Lattice="15.0 0.0 0.0 0.0 15.0 0.0 0.0 0.0 15.0" Properties=species:S:1:pos:R:3:forces:R:3 energy=0.0626536557 pbc="T T T"
O        0.00000000       0.00000000       0.00000000      -1.38175042       1.94999333       0.00000000
H        0.93509065       0.00000000       0.00000000       1.53270541      -0.41688411       0.00000000
H       -0.15765737       0.98120958       0.00000000      -0.15095494      -1.53310922       0.00000000
