3
Lattice="15.0 0.0 0.0 0.0 15.0 0.0 0.0 0.0 15.0" Properties=species:S:1:pos:R:3:forces:R:3 energy=1.1933378198 pbc="T T T"
O        0.00000000       0.00000000       0.00000000       5.99815264      -5.04165018       0.00000000
H        1.18189071       0.00000000       0.00000000      -5.08036649      -1.10546283       0.00000000
H        0.08164780       0.87671622       0.00000000      -0.91778615       6.14711307       0.00000000
