3
Lattice="15.0 0.0 0.0 0.0 15.0 0.0 0.0 0.0 15.0" Properties=species:S:1:pos:R:3:forces:R:3 energy=0.011549149 pbc="T T T"
O        0.00000000       0.00000000       0.00000000       0.47561878      -0.86405444       0.00000000
H        0.96128842       0.00000000       0.00000000      -0.09056551      -0.14765832       0.00000000
H       -0.20877791       0.91718608       0.00000000      -0.38505327       1.01171276       0.00000000
