3
Lattice="15.0 0.0 0.0 0.0 15.0 0.0 0.0 0.0 15.0" Properties=species:S:1:pos:R:3:forces:R:3 energy=1.3792370156 pbc="T T T"
O        0.00000000       0.00000000       0.00000000      -1.89436029     -14.44512186       0.00000000
H        0.89859519       0.00000000       0.00000000       4.41535785      -1.73708450       0.00000000
H       -0.02730502       0.79444393       0.00000000      -2.52099751      16.18220631       0.00000000
