3
Lattice="15.0 0.0 0.0 0.0 15.0 0.0 0.0 0.0 15.0" Properties=species:S:1:pos:R:3:forces:R:3 energy=0.2045772218 pbc="T T T"
O        0.00000000       0.00000000       0.00000000       3.01725747       2.39667561       0.00000000
H        1.01806773       0.00000000       0.00000000      -2.14037559      -0.89011479       0.00000000
H       -0.01929049       1.00028847       0.00000000      -0.87688188      -1.50656082       0.00000000
