3
Lattice="15.0 0.0 0.0 0.0 15.0 0.0 0.0 0.0 15.0" Properties=species:S:1:pos:R:3:forces:R:3 energy=0.0397923282 pbc="T T T"
O        0.00000000       0.00000000       0.00000000      -0.66404309      -1.83779173       0.00000000
H        0.93832217       0.00000000       0.00000000       1.08214929       0.09748445       0.00000000
H       -0.26597551       0.88830848       0.00000000      -0.41810621       1.74030727       0.00000000
