3
Lattice="15.0 0.0 0.0 0.0 15.0 0.0 0.0 0.0 15.0" Properties=species:S:1:pos:R:3:forces:R:3 energy=0.0462688421 pbc="T T T"
O        0.00000000       0.00000000       0.00000000      -2.20282643      -0.31868839       0.00000000
H        0.91955816       0.00000000       0.00000000       2.37948130      -0.07525185       0.00000000
H       -0.23714509       0.92054886       0.00000000      -0.17665492       0.39394029       0.00000000
