3
Lattice="15.0 0.0 0.0 0.0 15.0 0.0 0.0 0.0 15.0" Properties=species:S:1:pos:R:3:forces:R:3 energy=0.0239563872 pbc="T T T"
O        0.00000000       0.00000000       0.00000000       0.78842638      -0.73335857       0.00000000
H        0.96534884       0.00000000       0.00000000      -0.21677423      -0.35983639       0.00000000
H       -0.16617855       0.92544594       0.00000000      -0.57165220       1.09319491       0.00000000
