3
Lattice="15.0 0.0 0.0 0.0 15.0 0.0 0.0 0.0 15.0" Properties=species:S:1:pos:R:3:forces:R:3 energy=0.5406778641 pbc="T T T"
O        0.00000000       0.00000000       0.00000000      -5.76480178       4.59271376       0.00000000
H        0.87493350       0.00000000       0.00000000       6.32631045      -0.94633060       0.00000000
H       -0.06329844       1.06350266       0.00000000      -0.56150868      -3.64638316       0.00000000
