3
Lattice="15.0 0.0 0.0 0.0 15.0 0.0 0.0 0.0 15.0" Properties=species:S:1:pos:R:3:forces:R:3 energy=0.4631952575 pbc="T T T"
O        0.00000000       0.00000000       0.00000000       0.50828404       4.65770064       0.00000000
H        0.94798499       0.00000000       0.00000000       1.24130225      -1.61331601       0.00000000
H        0.10596818       1.05854008       0.00000000      -1.74958634      -3.04438463       0.00000000
