3
Lattice="15.0 0.0 0.0 0.0 15.0 0.0 0.0 0.0 15.0" Properties=species:S:1:pos:R:3:forces:R:3 energy=1.2530193418 pbc="T T T"
O        0.00000000       0.00000000       0.00000000       5.41191924       0.75882448       0.00000000
H        1.25443978       0.00000000       0.00000000      -6.03010360       0.28726620       0.00000000
H       -0.22381070       0.96166203       0.00000000       0.61818436      -1.04609069       0.00000000
