3
Lattice="15.0 0.0 0.0 0.0 15.0 0.0 0.0 0.0 15.0" Properties=species:S:1:pos:R:3:forces:R:3 energy=0.0092715914 pbc="T T T"
O        0.00000000       0.00000000       0.00000000      -0.60080857      -0.70262148       0.00000000
H        0.94585721       0.00000000       0.00000000       0.66050345       0.10875314       0.00000000
H       -0.26462213       0.90938693       0.00000000      -0.05969487       0.59386829       0.00000000
