3
Lattice="15.0 0.0 0.0 0.0 15.0 0.0 0.0 0.0 15.0" Properties=species:S:1:pos:R:3:forces:R:3 energy=0.0032920798 pbc="T T T"
O        0.00000000       0.00000000       0.00000000      -0.24639978      -0.41331639       0.00000000
H        0.95169142       0.00000000       0.00000000       0.38554939      -0.02599824       0.00000000
H       -0.23532358       0.92076007       0.00000000      -0.13914961       0.43931463       0.00000000
