3
Lattice="15.0 0.0 0.0 0.0 15.0 0.0 0.0 0.0 15.0" Properties=species:S:1:pos:R:3:forces:R:3 energy=1.6398590991 pbc="T T T"
O        0.00000000       0.00000000       0.00000000       4.13061596       2.30811315       0.00000000
H        1.27874762       0.00000000       0.00000000      -6.12120060       0.68350383       0.00000000
H       -0.36540013       0.98823535       0.00000000       1.99058469      -2.99161698       0.00000000
