3
Lattice="15.0 0.0 0.0 0.0 15.0 0.0 0.0 0.0 15.0" Properties=species:S:1:pos:R:3:forces:R:3 energy=0.3483652358 pbc="T T T"
O        0.00000000       0.00000000       0.00000000      -2.82544661       3.08950479       0.00000000
H        0.94700733       0.00000000       0.00000000       0.55953037       0.74139682       0.00000000
H       -0.40651286       0.99713261       0.00000000       2.26591624      -3.83090160       0.00000000
