3
Lattice="15.0 0.0 0.0 0.0 15.0 0.0 0.0 0.0 15.0" Properties=species:S:1:pos:R:3:forces:R:3 energy=0.2022989703 pbc="T T T"
O        0.00000000       0.00000000       0.00000000       2.10443422       2.02609185       0.00000000
H        0.98615265       0.00000000       0.00000000      -0.76616586      -1.31120317       0.00000000
H        0.03600656       0.98544299       0.00000000      -1.33826836      -0.71488868       0.00000000
