3
Lattice="15.0 0.0 0.0 0.0 15.0 0.0 0.0 0.0 15.0" Properties=species:S:1:pos:R:3:forces:R:3 energy=0.6436900598 pbc="T T T"
O        0.00000000       0.00000000       0.00000000       5.53407349       1.85110732       0.00000000
H        1.13867397       0.00000000       0.00000000      -4.88576485      -0.58972506       0.00000000
H       -0.02155847       0.99383387       0.00000000      -0.64830865      -1.26138226       0.00000000
