3
Lattice="15.0 0.0 0.0 0.0 15.0 0.0 0.0 0.0 15.0" Properties=species:S:1:pos:R:3:forces:R:3 energy=0.5425148177 pbc="T T T"
O        0.00000000       0.00000000       0.00000000       4.04988647      -4.54741666       0.00000000
H        1.04171786       0.00000000       0.00000000      -2.70079798      -1.38299504       0.00000000
H        0.04245225       0.88128487       0.00000000      -1.34908850       5.93041170       0.00000000
