3
Lattice="15.0 0.0 0.0 0.0 15.0 0.0 0.0 0.0 15.0" Properties=species:S:1:pos:R:3:forces:R:3 energy=0.4895755397 pbc="T T T"
O        0.00000000       0.00000000       0.00000000       3.69782618       4.32932716       0.00000000
H        1.05670008       0.00000000       0.00000000      -3.37104452      -0.52634841       0.00000000
H       -0.05412696       1.07211858       0.00000000      -0.32678171      -3.80297874       0.00000000
