3
Lattice="15.0 0.0 0.0 0.0 15.0 0.0 0.0 0.0 15.0" Properties=species:S:1:pos:R:3:forces:R:3 energy=0.8034515383 pbc="T T T"
O        0.00000000       0.00000000       0.00000000       3.31400051      -3.02228460       0.00000000
H        1.05849629       0.00000000       0.00000000      -4.45936107       1.61545897       0.00000000
H       -0.68004603       0.65765417       0.00000000       1.14536056       1.40682563       0.00000000
