3
Lattice="15.0 0.0 0.0 0.0 15.0 0.0 0.0 0.0 15.0" Properties=species:S:1:pos:R:3:forces:R:3 energy=0.155766643 pbc="T T T"
O        0.00000000       0.00000000       0.00000000       1.88066119       2.90828666       0.00000000
H        0.99478462       0.00000000       0.00000000      -1.34784218      -0.69272736       0.00000000
H       -0.06710905       1.01428528       0.00000000      -0.53281896      -2.21555931       0.00000000
