3
Lattice="15.0 0.0 0.0 0.0 15.0 0.0 0.0 0.0 15.0" Properties=species:S:1:pos:R:3:forces:R:3 energy=0.0158128249 pbc="T T T"
O        0.00000000       0.00000000       0.00000000      -0.93736835       1.02579547       0.00000000
H        0.94523390       0.00000000       0.00000000       0.80088410      -0.08414638       0.00000000
H       -0.22259269       0.95297582       0.00000000       0.13648425      -0.94164908       0.00000000
