3
Lattice="15.0 0.0 0.0 0.0 15.0 0.0 0.0 0.0 15.0" Properties=species:S:1:pos:R:3:forces:R:3 energy=0.0772037498 pbc="T T T"
O        0.00000000       0.00000000       0.00000000       0.11256352       0.17183513       0.00000000
H        0.97932769       0.00000000       0.00000000      -1.21123992       0.67894505       0.00000000
H       -0.38262823       0.90148675       0.00000000       1.09867635      -0.85078019       0.00000000
