3
Lattice="15.0 0.0 0.0 0.0 15.0 0.0 0.0 0.0 15.0" Properties=species:S:1:pos:R:3:forces:R:3 energy=0.0811881471 pbc="T T T"
O        0.00000000       0.00000000       0.00000000       2.32233460      -2.08219479       0.00000000
H        0.99445812       0.00000000       0.00000000      -1.58701819      -0.25030858       0.00000000
H       -0.17798207       0.90310129       0.00000000      -0.73531641       2.33250337       0.00000000
