3
Lattice="15.0 0.0 0.0 0.0 15.0 0.0 0.0 0.0 15.0" Properties=species:S:1:pos:R:3:forces:R:3 energy=0.0058289891 pbc="T T T"
O        0.00000000       0.00000000       0.00000000      -0.15067932      -0.33568406       0.00000000
H        0.95837278       0.00000000       0.00000000      -0.05731619       0.22970565       0.00000000
H       -0.28532123       0.91302810       0.00000000       0.20799550       0.10597840       0.00000000
