3
Lattice="15.0 0.0 0.0 0.0 15.0 0.0 0.0 0.0 15.0" Properties=species:S:1:pos:R:3:forces:R:3 energy=0.0972997421 pbc="T T T"
O        0.00000000       0.00000000       0.00000000      -1.87963938       2.23919727       0.00000000
H        0.94237736       0.00000000       0.00000000       0.90432307       0.24694218       0.00000000
H       -0.28966569       0.97697740       0.00000000       0.97531636      -2.48613945       0.00000000
