3
Lattice="15.0 0.0 0.0 0.0 15.0 0.0 0.0 0.0 15.0" Properties=species:S:1:pos:R:3:forces:R:3 energy=0.1189124289 pbc="T T T"
O        0.00000000       0.00000000       0.00000000      -3.80890041       0.85138254       0.00000000
H        0.91269071       0.00000000       0.00000000       2.70463268       0.55154976       0.00000000
H       -0.36538657       0.92007303       0.00000000       1.10426773      -1.40293231       0.00000000
