3
Lattice="15.0 0.0 0.0 0.0 15.0 0.0 0.0 0.0 15.0" Properties=species:S:1:pos:R:3:forces:R:3 energy=0.9293587438 pbc="T T T"
O        0.00000000       0.00000000       0.00000000      -4.05035488      -7.05563702       0.00000000
H        0.88341938       0.00000000       0.00000000       5.91605892      -2.27448563       0.00000000
H        0.04568907       0.84849474       0.00000000      -1.86570405       9.33012265       0.00000000
