3
Lattice="15.0 0.0 0.0 0.0 15.0 0.0 0.0 0.0 15.0" Properties=species:S:1:pos:R:3:forces:R:3 energy=0.0067616049 pbc="T T T"
O        0.00000000       0.00000000       0.00000000       0.25183849       0.36270384       0.00000000
H        0.96858190       0.00000000       0.00000000      -0.52359224       0.12961122       0.00000000
H       -0.26025265       0.93343839       0.00000000       0.27175375      -0.49231501       0.00000000
