3
Lattice="15.0 0.0 0.0 0.0 15.0 0.0 0.0 0.0 15.0" Properties=species:S:1:pos:R:3:forces:R:3 energy=0.6781530189 pbc="T T T"
O        0.00000000       0.00000000       0.00000000       5.24343220       4.17317000       0.00000000
H        1.07962979       0.00000000       0.00000000      -3.59580856      -1.26235538       0.00000000
H        0.12626018       1.05023770       0.00000000      -1.64762364      -2.91081463       0.00000000
