3
Lattice="15.0 0.0 0.0 0.0 15.0 0.0 0.0 0.0 15.0" Properties=species:S:1:pos:R:3:forces:R:3 energy=0.0340662879 pbc="T T T"
O        0.00000000       0.00000000       0.00000000       1.15848461       1.19549149       0.00000000
H        0.98674785       0.00000000       0.00000000      -1.24967731      -0.12570155       0.00000000
H       -0.19798843       0.96247070       0.00000000       0.09119265      -1.06978994       0.00000000
