3
Lattice="15.0 0.0 0.0 0.0 15.0 0.0 0.0 0.0 15.0" Properties=species:S:1:pos:R:3:forces:R:3 energy=0.9544734762 pbc="T T T"
O        0.00000000       0.00000000       0.00000000       2.03478378       1.86477716       0.00000000
H        1.11921001       0.00000000       0.00000000      -5.17092310       1.16015794       0.00000000
H       -0.53260343       0.92774935       0.00000000       3.13613932      -3.02493510       0.00000000
