3
Lattice="15.0 0.0 0.0 0.0 15.0 0.0 0.0 0.0 15.0" Properties=species:S:1:pos:R:3:forces:R:3 energy=0.0196157984 pbc="T T T"
O        0.00000000       0.00000000       0.00000000       0.31840428       0.48193109       0.00000000
H        0.97398277       0.00000000       0.00000000      -0.82276955       0.26269940       0.00000000
H       -0.28728871       0.93144530       0.00000000       0.50436527      -0.74463050       0.00000000
