3
Lattice="15.0 0.0 0.0 0.0 15.0 0.0 0.0 0.0 15.0" Properties=species:S:1:pos:R:3:forces:R:3 energy=0.7416249754 pbc="T T T"
O        0.00000000       0.00000000       0.00000000      -0.60152576      -1.25479885       0.00000000
H        0.99993546       0.00000000       0.00000000      -2.56064682       1.74383010       0.00000000
H       -0.74887758       0.66724445       0.00000000       3.16217253      -0.48903125       0.00000000
