3
Lattice="15.0 0.0 0.0 0.0 15.0 0.0 0.0 0.0 15.0" Properties=species:S:1:pos:R:3:forces:R:3 energy=1.7244462068 pbc="T T T"
O        0.00000000       0.00000000       0.00000000       6.45125312       1.91522346       0.00000000
H        1.32378527       0.00000000       0.00000000      -5.68924139      -0.51360103       0.00000000
H        0.05838102       0.99962459       0.00000000      -0.76201168      -1.40162243       0.00000000
