3
Lattice="15.0 0.0 0.0 0.0 15.0 0.0 0.0 0.0 15.0" Properties=species:S:1:pos:R:3:forces:R:3 energy=0.4248100682 pbc="T T T"
O        0.00000000       0.00000000       0.00000000      -2.93944428       3.16728388       0.00000000
H        0.94987729       0.00000000       0.00000000       0.38416269       0.84823304       0.00000000
H       -0.43525574       0.99930048       0.00000000       2.55528159      -4.01551693       0.00000000
