3
Lattice="15.0 0.0 0.0 0.0 15.0 0.0 0.0 0.0 15.0" Properties=species:S:1:pos:R:3:forces:R:3 energy=0.0026947545 pbc="T T T"
O        0.00000000       0.00000000       0.00000000      -0.23573304      -0.26317747       0.00000000
H        0.95203287       0.00000000       0.00000000       0.38340874      -0.06515045       0.00000000
H       -0.22716288       0.92506280       0.00000000      -0.14767565       0.32832792       0.00000000
