3
Lattice="15.0 0.0 0.0 0.0 15.0 0.0 0.0 0.0 15.0" Properties=species:S:1:pos:R:3:forces:R:3 energy=0.0561935666 pbc="T T T"
O        0.00000000       0.00000000       0.00000000       1.23152408       1.17995122       0.00000000
H        0.99623801       0.00000000       0.00000000      -1.73319678       0.14427917       0.00000000
H       -0.25344641       0.95551909       0.00000000       0.50167265      -1.32423039       0.00000000
