3
Lattice="15.0 0.0 0.0 0.0 15.0 0.0 0.0 0.0 15.0" Properties=species:S:1:pos:R:3:forces:R:3 energy=0.0226128142 pbc="T T T"
O        0.00000000       0.00000000       0.00000000       0.43539215      -0.01554099       0.00000000
H        0.95987906       0.00000000       0.00000000       0.10922571      -0.46037989       0.00000000
H       -0.14737253       0.94019442       0.00000000      -0.54461786       0.47592083       0.00000000
