3
Lattice="15.0 0.0 0.0 0.0 15.0 0.0 0.0 0.0 15.0" Properties=species:S:1:pos:R:3:forces:R:3 energy=0.0601551553 pbc="T T T"
O        0.00000000       0.00000000       0.00000000       1.79946669      -2.15962370       0.00000000
H        0.98723186       0.00000000       0.00000000      -1.48044313       0.26246564       0.00000000
H       -0.28467000       0.88065438       0.00000000      -0.31902356       1.89715801       0.00000000
