3
Lattice="15.0 0.0 0.0 0.0 15.0 0.0 0.0 0.0 15.0" Properties=species:S:1:pos:R:3:forces:R:3 energy=0.1618708835 pbc="T T T"
O        0.00000000       0.00000000       0.00000000      -2.33238356      -2.99693654       0.00000000
H        0.91052504       0.00000000       0.00000000       2.71592569       0.63830715       0.00000000
H       -0.38183005       0.83276621       0.00000000      -0.38354213       2.35862939       0.00000000
