3
Lattice="15.0 0.0 0.0 0.0 15.0 0.0 0.0 0.0 15.0" Properties=species:S:1:pos:R:3:forces:R:3 energy=0.0070997799 pbc="T T T"
O        0.00000000       0.00000000       0.00000000       0.12895652       0.25087176       0.00000000
H        0.95803357       0.00000000       0.00000000       0.14027447      -0.26236274       0.00000000
H       -0.18491111       0.94148578       0.00000000      -0.26923098       0.01149099       0.00000000
