       3
Lattice="15.0 0.0 0.0 0.0 15.0 0.0 0.0 0.0 15.0" Properties=species:S:1:pos:R:3:forces:R:3 energy=        0.0638124254 pbc="T T T"
       O    -0.0020719500    -0.0019716800     0.0000000000      1.413923572      1.328300603     -0.000000000
       H     0.9977892400     0.0014959700     0.0000000000     -1.853062492      0.076245997     -0.000000000
       H    -0.2435921200     0.9587436500     0.0000000000      0.439138971     -1.404546600     -0.000000000
