       3
Lattice="15.0 0.0 0.0 0.0 15.0 0.0 0.0 0.0 15.0" Properties=species:S:1:pos:R:3:forces:R:3 energy=        1.3485712258 pbc="T T T"
       O     0.0105479200    -0.0048928800     0.0000000000    -17.963631507      2.925326916     -0.000000000
       H     0.7959753800     0.0118865900     0.0000000000     17.441519759      0.072821903     -0.000000000
       H    -0.2420644600     0.9947138000     0.0000000000      0.522111749     -2.998148819     -0.000000000
