       3
Lattice="15.0 0.0 0.0 0.0 15.0 0.0 0.0 0.0 15.0" Properties=species:S:1:pos:R:3:forces:R:3 energy=        1.2135645763 pbc="T T T"
       O     0.0099662100    -0.0045185200     0.0000000000     -2.066510435      3.984133409     -0.000000000
       H     0.9854522200    -0.1292571500     0.0000000000     -1.056166791      1.386571444     -0.000000000
       H    -0.4223126800     1.1299178100     0.0000000000      3.122677277     -5.370704801     -0.000000000
