       3
Lattice="15.0 0.0 0.0 0.0 15.0 0.0 0.0 0.0 15.0" Properties=species:S:1:pos:R:3:forces:R:3 energy=        3.7576851348 pbc="T T T"
       O    -0.0223018200    -0.0017499800     0.0000000000      2.821039169    -26.781414556     -0.000000000
       H     1.0180490400     0.2343779500     0.0000000000     -1.350276141     -3.656646548     -0.000000000
       H     0.0572167200     0.7223417100     0.0000000000     -1.470763028     30.438061104     -0.000000000
