       3
Lattice="15.0 0.0 0.0 0.0 15.0 0.0 0.0 0.0 15.0" Properties=species:S:1:pos:R:3:forces:R:3 energy=        0.3302158427 pbc="T T T"
       O     0.0055008300     0.0073679900     0.0000000000     -3.367009429     -4.776380912     -0.000000000
       H     0.8920298000    -0.0391354200     0.0000000000      4.621275493     -0.012656673     -0.000000000
       H    -0.2580194200     0.8511473600     0.0000000000     -1.254266012      4.789037534     -0.000000000
