       3
Lattice="15.0 0.0 0.0 0.0 15.0 0.0 0.0 0.0 15.0" Properties=species:S:1:pos:R:3:forces:R:3 energy=        0.5271603877 pbc="T T T"
       O    -0.0018471200    -0.0158514500     0.0000000000     -3.389958695      4.599696831     -0.000000000
       H     0.8941977200     0.1229012500     0.0000000000      3.943596606     -0.673555761     -0.000000000
       H    -0.1435655700     1.0576194700     0.0000000000     -0.553637962     -3.926141070     -0.000000000
