       3
Lattice="15.0 0.0 0.0 0.0 15.0 0.0 0.0 0.0 15.0" Properties=species:S:1:pos:R:3:forces:R:3 energy=        0.8217338155 pbc="T T T"
       O     0.0140860800     0.0259715400     0.0000000000      2.190792169     -4.911530911     -0.000000000
       H     0.9904739800    -0.2800036500     0.0000000000     -2.928389718      2.665702144     -0.000000000
       H    -0.4927242000     0.7967653300     0.0000000000      0.737597549      2.245828767     -0.000000000
