       3
Lattice="15.0 0.0 0.0 0.0 15.0 0.0 0.0 0.0 15.0" Properties=species:S:1:pos:R:3:forces:R:3 energy=        1.4220423108 pbc="T T T"
       O     0.0022947900     0.0055481800     0.0000000000      1.944099024      1.838297976     -0.000000000
       H     1.1365217800    -0.1837437000     0.0000000000     -5.249361376      2.221175681     -0.000000000
       H    -0.4516328200     1.0246391700     0.0000000000      3.305262352     -4.059473657     -0.000000000
