       3
Lattice="15.0 0.0 0.0 0.0 15.0 0.0 0.0 0.0 15.0" Properties=species:S:1:pos:R:3:forces:R:3 energy=        3.1445178010 pbc="T T T"
       O     0.0089893300    -0.0184849300     0.0000000000    -27.558447755      0.968108266     -0.000000000
       H     0.7276138200     0.1270072600     0.0000000000     28.263490700      3.620819648     -0.000000000
       H    -0.1489638200     1.0953080200     0.0000000000     -0.705042945     -4.588927914     -0.000000000
