       3
Lattice="15.0 0.0 0.0 0.0 15.0 0.0 0.0 0.0 15.0" Properties=species:S:1:pos:R:3:forces:R:3 energy=        4.2031462313 pbc="T T T"
       O     0.0065402500     0.0319104800     0.0000000000     21.579931977    -36.163987629     -0.000000000
       H     0.9771315700    -0.1953617000     0.0000000000     -2.540958022      1.992406270     -0.000000000
       H    -0.3596219200     0.6178673300     0.0000000000    -19.038973955     34.171581359     -0.000000000
