       3
Lattice="15.0 0.0 0.0 0.0 15.0 0.0 0.0 0.0 15.0" Properties=species:S:1:pos:R:3:forces:R:3 energy=        1.7788264256 pbc="T T T"
       O     0.0047250300    -0.0234279200     0.0000000000    -12.086926732      4.511887086     -0.000000000
       H     0.8144498500     0.1277055300     0.0000000000     12.179581003      0.966865497     -0.000000000
       H    -0.1681222500     1.1730591100     0.0000000000     -0.092654271     -5.478752583     -0.000000000
