       3
Lattice="15.0 0.0 0.0 0.0 15.0 0.0 0.0 0.0 15.0" Properties=species:S:1:pos:R:3:forces:R:3 energy=        0.1789989516 pbc="T T T"
       O    -0.0004472400     0.0022481800     0.0000000000     -0.384798526     -4.026556374     -0.000000000
       H     0.9280991400     0.0222923100     0.0000000000      1.831960050     -0.370830641     -0.000000000
       H    -0.1996868900     0.8709744900     0.0000000000     -1.447161576      4.397387015     -0.000000000
