       3
Lattice="15.0 0.0 0.0 0.0 15.0 0.0 0.0 0.0 15.0" Properties=species:S:1:pos:R:3:forces:R:3 energy=        1.5421793038 pbc="T T T"
       O    -0.0223119900    -0.0130214500     0.0000000000      4.226387285     -4.462662521     -0.000000000
       H     0.9996525200     0.2843047400     0.0000000000     -1.000302041     -3.813851840     -0.000000000
       H     0.0757759900     0.8513012400     0.0000000000     -3.226085244      8.276514361     -0.000000000
