       3
Lattice="15.0 0.0 0.0 0.0 15.0 0.0 0.0 0.0 15.0" Properties=species:S:1:pos:R:3:forces:R:3 energy=        0.4164549917 pbc="T T T"
       O    -0.0093655900    -0.0163042200     0.0000000000      2.099968062      4.760633926     -0.000000000
       H     0.9799459800     0.1503999800     0.0000000000     -1.198524161     -1.494220396     -0.000000000
       H    -0.1099895300     1.0373066700     0.0000000000     -0.901443952     -3.266413479     -0.000000000
