       3
Lattice="15.0 0.0 0.0 0.0 15.0 0.0 0.0 0.0 15.0" Properties=species:S:1:pos:R:3:forces:R:3 energy=        9.7490146471 pbc="T T T"
       O     0.0228754800    -0.0054712900     0.0000000000    -84.300734156      3.483265616     -0.000000000
       H     0.6170465600     0.0007268000     0.0000000000     83.442747473      0.470056707     -0.000000000
       H    -0.2587832100     1.0150527400     0.0000000000      0.857986683     -3.953322271     -0.000000000
