       3
Lattice="15.0 0.0 0.0 0.0 15.0 0.0 0.0 0.0 15.0" Properties=species:S:1:pos:R:3:forces:R:3 energy=        1.2376457822 pbc="T T T"
       O    -0.0048984900     0.0096132200     0.0000000000      6.301777594    -16.402032493     -0.000000000
       H     0.9937555200     0.0029585900     0.0000000000     -1.929230636     -0.179915600     -0.000000000
       H    -0.1946994200     0.7734199700     0.0000000000     -4.372546958     16.581948041     -0.000000000
