       3
Lattice="15.0 0.0 0.0 0.0 15.0 0.0 0.0 0.0 15.0" Properties=species:S:1:pos:R:3:forces:R:3 energy=        3.2312538707 pbc="T T T"
       O     0.0081198600    -0.0189988200     0.0000000000    -27.731963310      0.163925593     -0.000000000
       H     0.7204895400     0.1448740500     0.0000000000     28.839443432      4.101642340     -0.000000000
       H    -0.1280399400     1.0855969200     0.0000000000     -1.107480172     -4.265567933     -0.000000000
