       3
Lattice="15.0 0.0 0.0 0.0 15.0 0.0 0.0 0.0 15.0" Properties=species:S:1:pos:R:3:forces:R:3 energy=        0.6084604606 pbc="T T T"
       O     0.0113194400     0.0144300400     0.0000000000     -4.728361270     -5.813920824     -0.000000000
       H     0.8702848400    -0.1162108200     0.0000000000      6.092861069      0.072131459     -0.000000000
       H    -0.3286220400     0.8161431100     0.0000000000     -1.364499799      5.741789365     -0.000000000
