       3
Lattice="15.0 0.0 0.0 0.0 15.0 0.0 0.0 0.0 15.0" Properties=species:S:1:pos:R:3:forces:R:3 energy=        1.3244644902 pbc="T T T"
       O     0.0012146800    -0.0244300600     0.0000000000     -5.505424757      5.654090434     -0.000000000
       H     0.8757006000     0.1265621300     0.0000000000      5.417110613     -0.060571928     -0.000000000
       H    -0.1736612100     1.1901073600     0.0000000000      0.088314144     -5.593518506     -0.000000000
