       3
Lattice="15.0 0.0 0.0 0.0 15.0 0.0 0.0 0.0 15.0" Properties=species:S:1:pos:R:3:forces:R:3 energy=        0.7937713762 pbc="T T T"
       O    -0.0080994700    -0.0013397100     0.0000000000      1.976587808     -8.788356245     -0.000000000
       H     0.9390021100     0.1194373100     0.0000000000      1.060493549     -1.640710662     -0.000000000
       H    -0.0891408900     0.8307714500     0.0000000000     -3.037081356     10.429066855     -0.000000000
