       3
Lattice="15.0 0.0 0.0 0.0 15.0 0.0 0.0 0.0 15.0" Properties=species:S:1:pos:R:3:forces:R:3 energy=        2.3738838990 pbc="T T T"
       O     0.0155017900    -0.0048046900     0.0000000000     -1.392795059      2.891259834     -0.000000000
       H     1.0173918300    -0.2213777400     0.0000000000     -2.293325755      2.195262754     -0.000000000
       H    -0.5421083000     1.2265808000     0.0000000000      3.686120814     -5.086522589     -0.000000000
