       3
Lattice="15.0 0.0 0.0 0.0 15.0 0.0 0.0 0.0 15.0" Properties=species:S:1:pos:R:3:forces:R:3 energy=        1.7866770547 pbc="T T T"
       O    -0.0036361600    -0.0276723800     0.0000000000     -8.098882828      3.458921577     -0.000000000
       H     0.7903082400     0.2628695200     0.0000000000     10.708205435      0.160392741     -0.000000000
       H    -0.0112789500     1.1052568100     0.0000000000     -2.609322607     -3.619314318     -0.000000000
