       3
Lattice="15.0 0.0 0.0 0.0 15.0 0.0 0.0 0.0 15.0" Properties=species:S:1:pos:R:3:forces:R:3 energy=        1.8391743245 pbc="T T T"
       O    -0.0099124700     0.0158808400     0.0000000000      6.087664558     -5.598576640     -0.000000000
       H     1.2645802100    -0.1652999900     0.0000000000     -6.198511707      2.011434396     -0.000000000
       H    -0.3859529800     0.8422088100     0.0000000000      0.110847149      3.587142243     -0.000000000
