       3
Lattice="15.0 0.0 0.0 0.0 15.0 0.0 0.0 0.0 15.0" Properties=species:S:1:pos:R:3:forces:R:3 energy=        1.4017118245 pbc="T T T"
       O    -0.0214317700    -0.0263377000     0.0000000000      5.457293529      6.773151889     -0.000000000
       H     1.0960745100     0.2405423300     0.0000000000     -4.136423315     -2.378576223     -0.000000000
       H    -0.0346165600     1.1064030800     0.0000000000     -1.320870214     -4.394575666     -0.000000000
