       3
Lattice="15.0 0.0 0.0 0.0 15.0 0.0 0.0 0.0 15.0" Properties=species:S:1:pos:R:3:forces:R:3 energy=        3.1684233764 pbc="T T T"
       O    -0.0043516900     0.0183401600     0.0000000000     13.545877129    -32.201514129     -0.000000000
       H     1.0241614200    -0.0548893700     0.0000000000     -3.405327729      0.634704626     -0.000000000
       H    -0.2337849100     0.6927654800     0.0000000000    -10.140549401     31.566809503     -0.000000000
