       3
Lattice="15.0 0.0 0.0 0.0 15.0 0.0 0.0 0.0 15.0" Properties=species:S:1:pos:R:3:forces:R:3 energy=        0.7626785036 pbc="T T T"
       O     0.0125584100     0.0031531400     0.0000000000    -12.928522779      2.130462439     -0.000000000
       H     0.8312694100    -0.0656501700     0.0000000000     11.765459649     -0.350916101     -0.000000000
       H    -0.3092685200     0.9445548800     0.0000000000      1.163063130     -1.779546339     -0.000000000
