       3
Lattice="15.0 0.0 0.0 0.0 15.0 0.0 0.0 0.0 15.0" Properties=species:S:1:pos:R:3:forces:R:3 energy=        2.0725456662 pbc="T T T"
       O    -0.0326942900    -0.0247590700     0.0000000000      6.350765257      5.857377887     -0.000000000
       H     1.2456560200     0.2582137300     0.0000000000     -5.000541773     -2.178138993     -0.000000000
       H    -0.0054533200     1.0636780400     0.0000000000     -1.350223484     -3.679238893     -0.000000000
