       3
Lattice="15.0 0.0 0.0 0.0 15.0 0.0 0.0 0.0 15.0" Properties=species:S:1:pos:R:3:forces:R:3 energy=        0.9790910402 pbc="T T T"
       O    -0.0210815700    -0.0065295200     0.0000000000      6.415032274     -1.481045954     -0.000000000
       H     1.1601148600     0.1240824500     0.0000000000     -5.206097300     -1.315359875     -0.000000000
       H    -0.1042180800     0.9084933900     0.0000000000     -1.208934923      2.796405778     -0.000000000
