       3
Lattice="15.0 0.0 0.0 0.0 15.0 0.0 0.0 0.0 15.0" Properties=species:S:1:pos:R:3:forces:R:3 energy=        1.5343212678 pbc="T T T"
       O     0.0029941200     0.0032712500     0.0000000000     -9.301042993    -10.725253863     -0.000000000
       H     0.8177549200     0.0623422200     0.0000000000     12.942752556     -0.638751030     -0.000000000
       H    -0.1439585400     0.8146871400     0.0000000000     -3.641709511     11.364004892     -0.000000000
