       3
Lattice="15.0 0.0 0.0 0.0 15.0 0.0 0.0 0.0 15.0" Properties=species:S:1:pos:R:3:forces:R:3 energy=        1.3820131266 pbc="T T T"
       O     0.0159974400    -0.0001482000     0.0000000000     -4.744958212      3.833737635     -0.000000000
       H     0.9408624400    -0.1827318000     0.0000000000      1.075568859      1.425143100     -0.000000000
       H    -0.4734443300     1.1140323200     0.0000000000      3.669389353     -5.258880736     -0.000000000
