       3
Lattice="15.0 0.0 0.0 0.0 15.0 0.0 0.0 0.0 15.0" Properties=species:S:1:pos:R:3:forces:R:3 energy=        1.5675883872 pbc="T T T"
       O     0.0012812600    -0.0161908200     0.0000000000    -13.763267090      1.202091517     -0.000000000
       H     0.7795193400     0.1744669900     0.0000000000     15.865795971      0.895478373     -0.000000000
       H    -0.0785354300     1.0114390500     0.0000000000     -2.102528830     -2.097569890     -0.000000000
