       3
Lattice="15.0 0.0 0.0 0.0 15.0 0.0 0.0 0.0 15.0" Properties=species:S:1:pos:R:3:forces:R:3 energy=        1.7155411256 pbc="T T T"
       O     0.0092477600    -0.0194587200     0.0000000000     -7.277021652      5.382618682     -0.000000000
       H     0.8920290700    -0.0007814900     0.0000000000      5.472690844      0.507156971     -0.000000000
       H    -0.3174837700     1.2385530300     0.0000000000      1.804330808     -5.889775602     -0.000000000
