       3
Lattice="15.0 0.0 0.0 0.0 15.0 0.0 0.0 0.0 15.0" Properties=species:S:1:pos:R:3:forces:R:3 energy=        1.7257579588 pbc="T T T"
       O     0.0014845700    -0.0183157600     0.0000000000    -14.322861426      1.588614328     -0.000000000
       H     0.7736492000     0.1832152500     0.0000000000     16.352133374      1.215014967     -0.000000000
       H    -0.0758918300     1.0364150700     0.0000000000     -2.029271896     -2.803629244     -0.000000000
