       3
Lattice="15.0 0.0 0.0 0.0 15.0 0.0 0.0 0.0 15.0" Properties=species:S:1:pos:R:3:forces:R:3 energy=        5.2874908172 pbc="T T T"
       O    -0.0022067800     0.0219671800     0.0000000000     18.769744874    -48.580164330     -0.000000000
       H     0.9831873300    -0.0609346400     0.0000000000     -1.973986261      0.558405047     -0.000000000
       H    -0.2268524000     0.6412470900     0.0000000000    -16.795758613     48.021759284     -0.000000000
