       3
Lattice="15.0 0.0 0.0 0.0 15.0 0.0 0.0 0.0 15.0" Properties=species:S:1:pos:R:3:forces:R:3 energy=        1.7146431526 pbc="T T T"
       O    -0.0035414100    -0.0296647300     0.0000000000      0.779314489      6.381342888     -0.000000000
       H     0.9853796000     0.1165022100     0.0000000000     -1.370727322     -0.609849914     -0.000000000
       H    -0.2078578100     1.2832460000     0.0000000000      0.591412833     -5.771492974     -0.000000000
