       3
Lattice="15.0 0.0 0.0 0.0 15.0 0.0 0.0 0.0 15.0" Properties=species:S:1:pos:R:3:forces:R:3 energy=        1.6990577251 pbc="T T T"
       O    -0.0047304300     0.0065784100     0.0000000000      3.063467675      1.216299337     -0.000000000
       H     1.2232640200    -0.1677685100     0.0000000000     -5.919483684      2.020345947     -0.000000000
       H    -0.4268793100     0.9923138000     0.0000000000      2.856015958     -3.236645233     -0.000000000
