       3
Lattice="15.0 0.0 0.0 0.0 15.0 0.0 0.0 0.0 15.0" Properties=species:S:1:pos:R:3:forces:R:3 energy=        2.0686998103 pbc="T T T"
       O    -0.0300680800    -0.0198804400     0.0000000000      5.901365112      5.339351418     -0.000000000
       H     1.2912232300     0.1750919200     0.0000000000     -5.501682463     -1.331327873     -0.000000000
       H    -0.0927025000     1.0693730200     0.0000000000     -0.399682649     -4.008023493     -0.000000000
