       3
Lattice="15.0 0.0 0.0 0.0 15.0 0.0 0.0 0.0 15.0" Properties=species:S:1:pos:R:3:forces:R:3 energy=        1.3331687214 pbc="T T T"
       O    -0.0088223100    -0.0158844600     0.0000000000      3.596374256      5.476998833     -0.000000000
       H     1.1191104300     0.0343174900     0.0000000000     -4.909376891     -0.060631629     -0.000000000
       H    -0.2577792000     1.1467284800     0.0000000000      1.313002635     -5.416367204     -0.000000000
