       3
Lattice="15.0 0.0 0.0 0.0 15.0 0.0 0.0 0.0 15.0" Properties=species:S:1:pos:R:3:forces:R:3 energy=        1.8813227315 pbc="T T T"
       O     0.0106799000    -0.0024768200     0.0000000000     -0.298068490      3.087728256     -0.000000000
       H     1.0479968100    -0.1930534000     0.0000000000     -3.329654625      2.131478591     -0.000000000
       H    -0.4961857500     1.1613113600     0.0000000000      3.627723064     -5.219206795     -0.000000000
