       3
Lattice="15.0 0.0 0.0 0.0 15.0 0.0 0.0 0.0 15.0" Properties=species:S:1:pos:R:3:forces:R:3 energy=        7.4750627319 pbc="T T T"
       O     0.0225826800     0.0005146700     0.0000000000    -68.393673657      5.990571944     -0.000000000
       H     0.6434099800    -0.0349982800     0.0000000000     67.544448680     -3.683379297     -0.000000000
       H    -0.2805007800     0.9557764600     0.0000000000      0.849224976     -2.307192647     -0.000000000
