       3
Lattice="15.0 0.0 0.0 0.0 15.0 0.0 0.0 0.0 15.0" Properties=species:S:1:pos:R:3:forces:R:3 energy=        0.5184070889 pbc="T T T"
       O     0.0121906200     0.0128771000     0.0000000000     -6.419083923     -3.419857040     -0.000000000
       H     0.8645157900    -0.1175741400     0.0000000000      6.788672207      0.000835712     -0.000000000
       H    -0.3366792600     0.8421527900     0.0000000000     -0.369588283      3.419021328     -0.000000000
