       3
Lattice="15.0 0.0 0.0 0.0 15.0 0.0 0.0 0.0 15.0" Properties=species:S:1:pos:R:3:forces:R:3 energy=        1.5440091770 pbc="T T T"
       O    -0.0110098200    -0.0209423600     0.0000000000      3.947163653      6.126666977     -0.000000000
       H     1.1183995900     0.0777657700     0.0000000000     -4.854942601     -0.507638745     -0.000000000
       H    -0.2223497100     1.1835526100     0.0000000000      0.907778948     -5.619028232     -0.000000000
