       3
Lattice="15.0 0.0 0.0 0.0 15.0 0.0 0.0 0.0 15.0" Properties=species:S:1:pos:R:3:forces:R:3 energy=        0.7359459319 pbc="T T T"
       O     0.0142593700     0.0034082500     0.0000000000    -11.316363202      3.315230524     -0.000000000
       H     0.8499631200    -0.1019327200     0.0000000000      9.194531858     -0.105611866     -0.000000000
       H    -0.3549585900     0.9767888700     0.0000000000      2.121831345     -3.209618658     -0.000000000
