       3
Lattice="15.0 0.0 0.0 0.0 15.0 0.0 0.0 0.0 15.0" Properties=species:S:1:pos:R:3:forces:R:3 energy=        0.7100193560 pbc="T T T"
       O    -0.0054886700     0.0077431300     0.0000000000      4.763642170     -2.302478372     -0.000000000
       H     1.1317866300    -0.0910597600     0.0000000000     -5.442271852      1.287270508     -0.000000000
       H    -0.3233662700     0.8971191100     0.0000000000      0.678629630      1.015207864     -0.000000000
