       3
Lattice="15.0 0.0 0.0 0.0 15.0 0.0 0.0 0.0 15.0" Properties=species:S:1:pos:R:3:forces:R:3 energy=        1.4290231252 pbc="T T T"
       O    -0.0013891800     0.0196927700     0.0000000000      9.166093335    -14.566842519     -0.000000000
       H     1.0809502200    -0.1397592500     0.0000000000     -4.945441875      1.817061734     -0.000000000
       H    -0.3375931100     0.7561690300     0.0000000000     -4.220651408     12.749780785     -0.000000000
