       3
Lattice="15.0 0.0 0.0 0.0 15.0 0.0 0.0 0.0 15.0" Properties=species:S:1:pos:R:3:forces:R:3 energy=        1.1700687459 pbc="T T T"
       O     0.0095388100     0.0129294000     0.0000000000      0.680661985      0.616606365     -0.000000000
       H     1.0680905000    -0.2431385900     0.0000000000     -4.298533040      2.706419798     -0.000000000
       H    -0.4981710500     0.9668886900     0.0000000000      3.617871054     -3.323026163     -0.000000000
