       3
Lattice="15.0 0.0 0.0 0.0 15.0 0.0 0.0 0.0 15.0" Properties=species:S:1:pos:R:3:forces:R:3 energy=        2.1564649167 pbc="T T T"
       O     0.0249149400     0.0021974500     0.0000000000     -9.598974238      4.698693040     -0.000000000
       H     0.8732247300    -0.2474999600     0.0000000000      5.365630418      0.559466656     -0.000000000
       H    -0.5473356300     1.1415733500     0.0000000000      4.233343819     -5.258159644     -0.000000000
