       3
Lattice="15.0 0.0 0.0 0.0 15.0 0.0 0.0 0.0 15.0" Properties=species:S:1:pos:R:3:forces:R:3 energy=        0.6847286639 pbc="T T T"
       O     0.0154104100     0.0069234100     0.0000000000     -6.003343750      2.898702462     -0.000000000
       H     0.9095770700    -0.1734859800     0.0000000000      2.818524629      0.991655417     -0.000000000
       H    -0.4328422700     0.9925545600     0.0000000000      3.184819070     -3.890357930     -0.000000000
