       3
Lattice="15.0 0.0 0.0 0.0 15.0 0.0 0.0 0.0 15.0" Properties=species:S:1:pos:R:3:forces:R:3 energy=        0.8705147474 pbc="T T T"
       O    -0.0085359300    -0.0014262200     0.0000000000      2.064436222     -9.335396907     -0.000000000
       H     0.9390186500     0.1250760300     0.0000000000      1.064084301     -1.730848079     -0.000000000
       H    -0.0822303200     0.8265057800     0.0000000000     -3.128520523     11.066244986     -0.000000000
