       3
Lattice="15.0 0.0 0.0 0.0 15.0 0.0 0.0 0.0 15.0" Properties=species:S:1:pos:R:3:forces:R:3 energy=        0.4721886940 pbc="T T T"
       O    -0.0029946400     0.0045065900     0.0000000000      3.469611869     -0.101576158     -0.000000000
       H     1.0905553400    -0.0795808100     0.0000000000     -4.715004537      1.125969652     -0.000000000
       H    -0.3217166900     0.9370063400     0.0000000000      1.245392720     -1.024393495     -0.000000000
