       3
Lattice="15.0 0.0 0.0 0.0 15.0 0.0 0.0 0.0 15.0" Properties=species:S:1:pos:R:3:forces:R:3 energy=        1.2090222287 pbc="T T T"
       O    -0.0083195700    -0.0282396800     0.0000000000     -1.265515005      5.872074782     -0.000000000
       H     0.8788706100     0.2536046300     0.0000000000      3.272521600     -1.647771943     -0.000000000
       H    -0.0255124700     1.1235256800     0.0000000000     -2.007006595     -4.224302839     -0.000000000
