       3
Lattice="15.0 0.0 0.0 0.0 15.0 0.0 0.0 0.0 15.0" Properties=species:S:1:pos:R:3:forces:R:3 energy=        2.9338184691 pbc="T T T"
       O     0.0016137100     0.0314898700     0.0000000000     15.947540070    -22.418978774     -0.000000000
       H     1.1101970800    -0.2366502400     0.0000000000     -5.727311784      2.873659288     -0.000000000
       H    -0.4145007700     0.6658320200     0.0000000000    -10.220228234     19.545319486     -0.000000000
