       3
Lattice="15.0 0.0 0.0 0.0 15.0 0.0 0.0 0.0 15.0" Properties=species:S:1:pos:R:3:forces:R:3 energy=        2.6936566240 pbc="T T T"
       O    -0.0037776700     0.0254682500     0.0000000000     13.998578676    -21.480689045     -0.000000000
       H     1.1437891100    -0.1773178600     0.0000000000     -5.969137521      2.312869696     -0.000000000
       H    -0.3625260400     0.7020669800     0.0000000000     -8.029441104     19.167819349     -0.000000000
