       3
Lattice="15.0 0.0 0.0 0.0 15.0 0.0 0.0 0.0 15.0" Properties=species:S:1:pos:R:3:forces:R:3 energy=        1.3567744899 pbc="T T T"
       O     0.0238118500     0.0110131000     0.0000000000    -11.817051738      4.619659399     -0.000000000
       H     0.8411752400    -0.2367962100     0.0000000000      7.853855964     -0.352600071     -0.000000000
       H    -0.4977791200     0.9909585900     0.0000000000      3.963195774     -4.267059328     -0.000000000
