       3
Lattice="15.0 0.0 0.0 0.0 15.0 0.0 0.0 0.0 15.0" Properties=species:S:1:pos:R:3:forces:R:3 energy=        2.4344608171 pbc="T T T"
       O    -0.0301618700    -0.0043816700     0.0000000000      6.545006331    -12.533801127     -0.000000000
       H     1.2021691400     0.1965639800     0.0000000000     -4.878857985     -2.220974518     -0.000000000
       H    -0.0021596600     0.8019235900     0.0000000000     -1.666148346     14.754775697     -0.000000000
