       3
Lattice="15.0 0.0 0.0 0.0 15.0 0.0 0.0 0.0 15.0" Properties=species:S:1:pos:R:3:forces:R:3 energy=        0.5509667041 pbc="T T T"
       O     0.0053232100     0.0072151400     0.0000000000      0.933148343      1.006396073     -0.000000000
       H     1.0388831300    -0.1504997700     0.0000000000     -3.476565780      1.786481481     -0.000000000
       H    -0.4020565500     0.9649388500     0.0000000000      2.543417438     -2.792877554     -0.000000000
