       3
Lattice="15.0 0.0 0.0 0.0 15.0 0.0 0.0 0.0 15.0" Properties=species:S:1:pos:R:3:forces:R:3 energy=        1.4231463747 pbc="T T T"
       O     0.0108263500     0.0205578800     0.0000000000      0.687893011    -14.900895158     -0.000000000
       H     0.8764748500    -0.1342494100     0.0000000000      4.918874036      0.212487018     -0.000000000
       H    -0.3269869300     0.7369284200     0.0000000000     -5.606766996     14.688408139     -0.000000000
