       3
Lattice="15.0 0.0 0.0 0.0 15.0 0.0 0.0 0.0 15.0" Properties=species:S:1:pos:R:3:forces:R:3 energy=        2.3748001064 pbc="T T T"
       O    -0.0006904200     0.0122913500     0.0000000000      4.333313140    -25.744688656     -0.000000000
       H     0.9105437200     0.0072755600     0.0000000000      2.867239549     -0.538190561     -0.000000000
       H    -0.1782726600     0.7265988400     0.0000000000     -7.200552689     26.282879217     -0.000000000
