       3
Lattice="15.0 0.0 0.0 0.0 15.0 0.0 0.0 0.0 15.0" Properties=species:S:1:pos:R:3:forces:R:3 energy=        1.6763525392 pbc="T T T"
       O    -0.0045646600    -0.0140139300     0.0000000000      2.909389823      4.945364433     -0.000000000
       H     1.1259327000    -0.0293453400     0.0000000000     -4.980242493      0.638010809     -0.000000000
       H    -0.3321750500     1.1807051300     0.0000000000      2.070852619     -5.583375242     -0.000000000
