       3
Lattice="15.0 0.0 0.0 0.0 15.0 0.0 0.0 0.0 15.0" Properties=species:S:1:pos:R:3:forces:R:3 energy=        4.3371371477 pbc="T T T"
       O    -0.0240854400     0.0014497900     0.0000000000      4.531298307    -32.610486949     -0.000000000
       H     1.0792316700     0.1987670900     0.0000000000     -3.188506085     -2.991753969     -0.000000000
       H     0.0243404400     0.7071703600     0.0000000000     -1.342792221     35.602240918     -0.000000000
