       3
Lattice="15.0 0.0 0.0 0.0 15.0 0.0 0.0 0.0 15.0" Properties=species:S:1:pos:R:3:forces:R:3 energy=        7.1435159749 pbc="T T T"
       O     0.0360223100     0.0133340700     0.0000000000    -59.217715457     24.074739550     -0.000000000
       H     0.6275981200    -0.2287435400     0.0000000000     55.432654176    -20.137027945     -0.000000000
       H    -0.4779906500     0.9460694600     0.0000000000      3.785061282     -3.937711605     -0.000000000
