       3
Lattice="15.0 0.0 0.0 0.0 15.0 0.0 0.0 0.0 15.0" Properties=species:S:1:pos:R:3:forces:R:3 energy=        1.8984721796 pbc="T T T"
       O    -0.0107224100    -0.0321314800     0.0000000000      3.416708928      6.967158581     -0.000000000
       H     1.0497820200     0.1627635100     0.0000000000     -3.560911014     -1.269364206     -0.000000000
       H    -0.1582913000     1.2761337000     0.0000000000      0.144202086     -5.697794375     -0.000000000
