       3
Lattice="15.0 0.0 0.0 0.0 15.0 0.0 0.0 0.0 15.0" Properties=species:S:1:pos:R:3:forces:R:3 energy=        4.2106410306 pbc="T T T"
       O    -0.0271708900    -0.0022373400     0.0000000000      2.728871248    -27.964606502     -0.000000000
       H     1.0765150600     0.2505197600     0.0000000000     -2.529650099     -3.666156086     -0.000000000
       H     0.0760267900     0.7139347700     0.0000000000     -0.199221148     31.630762588     -0.000000000
