       3
Lattice="15.0 0.0 0.0 0.0 15.0 0.0 0.0 0.0 15.0" Properties=species:S:1:pos:R:3:forces:R:3 energy=        1.9797857358 pbc="T T T"
       O    -0.0095997800    -0.0384680100     0.0000000000      1.660546012      7.077409079     -0.000000000
       H     0.9547604300     0.2426810600     0.0000000000     -0.911942028     -1.700920990     -0.000000000
       H    -0.0810844300     1.2967807000     0.0000000000     -0.748603984     -5.376488089     -0.000000000
