       3
Lattice="15.0 0.0 0.0 0.0 15.0 0.0 0.0 0.0 15.0" Properties=species:S:1:pos:R:3:forces:R:3 energy=        1.1292296529 pbc="T T T"
       O    -0.0029429600    -0.0250569200     0.0000000000     -3.890066727      5.623767549     -0.000000000
       H     0.8723807600     0.1823540200     0.0000000000      4.804339256     -0.658237430     -0.000000000
       H    -0.1043551900     1.1442639100     0.0000000000     -0.914272529     -4.965530119     -0.000000000
