       3
Lattice="15.0 0.0 0.0 0.0 15.0 0.0 0.0 0.0 15.0" Properties=species:S:1:pos:R:3:forces:R:3 energy=        0.7383924505 pbc="T T T"
       O    -0.0161674500    -0.0059244200     0.0000000000      5.595082715      0.991569851     -0.000000000
       H     1.1491588300     0.0701218200     0.0000000000     -5.322095399     -0.621198203     -0.000000000
       H    -0.1712540800     0.9528509000     0.0000000000     -0.272987367     -0.370371648     -0.000000000
