       3
Lattice="15.0 0.0 0.0 0.0 15.0 0.0 0.0 0.0 15.0" Properties=species:S:1:pos:R:3:forces:R:3 energy=        3.4494823020 pbc="T T T"
       O     0.0147728900    -0.0124632900     0.0000000000    -32.844481204      3.572088427     -0.000000000
       H     0.7311198700     0.0340340900     0.0000000000     31.974051559      1.561844606     -0.000000000
       H    -0.2442616500     1.0927139100     0.0000000000      0.870429646     -5.133933034     -0.000000000
