       3
Lattice="15.0 0.0 0.0 0.0 15.0 0.0 0.0 0.0 15.0" Properties=species:S:1:pos:R:3:forces:R:3 energy=        0.7085391818 pbc="T T T"
       O     0.0001048700     0.0040297000     0.0000000000      2.400901893      1.434620448     -0.000000000
       H     1.0922680500    -0.1176064000     0.0000000000     -4.685131235      1.549905323     -0.000000000
       H    -0.3726218000     0.9826007600     0.0000000000      2.284229342     -2.984525720     -0.000000000
