       3
Lattice="15.0 0.0 0.0 0.0 15.0 0.0 0.0 0.0 15.0" Properties=species:S:1:pos:R:3:forces:R:3 energy=        1.0438011365 pbc="T T T"
       O     0.0032716400     0.0006407200     0.0000000000      1.304325980      2.828353858     -0.000000000
       H     1.0780075700    -0.1348814800     0.0000000000     -4.264505450      1.701897135     -0.000000000
       H    -0.4086206800     1.0536614900     0.0000000000      2.960179470     -4.530251045     -0.000000000
