       3
Lattice="15.0 0.0 0.0 0.0 15.0 0.0 0.0 0.0 15.0" Properties=species:S:1:pos:R:3:forces:R:3 energy=        1.1129176461 pbc="T T T"
       O     0.0208516600     0.0089178900     0.0000000000    -10.906849473      4.139961051     -0.000000000
       H     0.8536301900    -0.2033844500     0.0000000000      7.325122696     -0.032261086     -0.000000000
       H    -0.4632528100     0.9907991100     0.0000000000      3.581726778     -4.107699965     -0.000000000
