       3
Lattice="15.0 0.0 0.0 0.0 15.0 0.0 0.0 0.0 15.0" Properties=species:S:1:pos:R:3:forces:R:3 energy=        1.6166483501 pbc="T T T"
       O     0.0041926600    -0.0062355700     0.0000000000      1.090939538      3.765360760     -0.000000000
       H     1.0801180700    -0.1262038300     0.0000000000     -4.129143335      1.596431822     -0.000000000
       H    -0.4253480100     1.1541156200     0.0000000000      3.038203797     -5.361792582     -0.000000000
