       3
Lattice="15.0 0.0 0.0 0.0 15.0 0.0 0.0 0.0 15.0" Properties=species:S:1:pos:R:3:forces:R:3 energy=        2.1169056241 pbc="T T T"
       O     0.0181892500    -0.0031340900     0.0000000000    -22.638246257      5.963657932     -0.000000000
       H     0.7836304600    -0.0782409300     0.0000000000     20.212973637     -1.012564923     -0.000000000
       H    -0.3509953400     1.0569285300     0.0000000000      2.425272672     -4.951093008     -0.000000000
