       3
Lattice="15.0 0.0 0.0 0.0 15.0 0.0 0.0 0.0 15.0" Properties=species:S:1:pos:R:3:forces:R:3 energy=        1.7970996087 pbc="T T T"
       O     0.0048264600     0.0008698900     0.0000000000    -15.065868476     -7.867996112     -0.000000000
       H     0.7847608500     0.0729477800     0.0000000000     18.183131933     -0.186176496     -0.000000000
       H    -0.1400447200     0.8421926500     0.0000000000     -3.117263457      8.054172557     -0.000000000
