       3
Lattice="15.0 0.0 0.0 0.0 15.0 0.0 0.0 0.0 15.0" Properties=species:S:1:pos:R:3:forces:R:3 energy=        0.4743715179 pbc="T T T"
       O    -0.0105712800    -0.0165781400     0.0000000000      1.373065690      3.522938630     -0.000000000
       H     0.9387362300     0.1981223200     0.0000000000      0.638397349     -2.057090782     -0.000000000
       H    -0.0496434100     0.9939311800     0.0000000000     -2.011463039     -1.465847848     -0.000000000
