       3
Lattice="15.0 0.0 0.0 0.0 15.0 0.0 0.0 0.0 15.0" Properties=species:S:1:pos:R:3:forces:R:3 energy=        1.2609772327 pbc="T T T"
       O    -0.0153774300    -0.0296703400     0.0000000000      3.334283590      7.002754904     -0.000000000
       H     0.9785907400     0.2676586000     0.0000000000     -1.528209059     -2.558604951     -0.000000000
       H    -0.0132188800     1.1321776400     0.0000000000     -1.806074531     -4.444149901     -0.000000000
