       3
Lattice="15.0 0.0 0.0 0.0 15.0 0.0 0.0 0.0 15.0" Properties=species:S:1:pos:R:3:forces:R:3 energy=        1.6407830835 pbc="T T T"
       O     0.0089553500    -0.0013830000     0.0000000000      0.009693372      3.118143495     -0.000000000
       H     1.0544265800    -0.1802395900     0.0000000000     -3.556839876      2.055063827     -0.000000000
       H    -0.4752454300     1.1311377200     0.0000000000      3.547146504     -5.173207373     -0.000000000
