       3
Lattice="15.0 0.0 0.0 0.0 15.0 0.0 0.0 0.0 15.0" Properties=species:S:1:pos:R:3:forces:R:3 energy=        2.3872243708 pbc="T T T"
       O    -0.0110043000     0.0176243900     0.0000000000     11.481896199    -18.599486548     -0.000000000
       H     1.1882456900    -0.0980626200     0.0000000000     -6.186031206      1.407010438     -0.000000000
       H    -0.2922886100     0.7472993300     0.0000000000     -5.295864941     17.192476059     -0.000000000
