       3
Lattice="15.0 0.0 0.0 0.0 15.0 0.0 0.0 0.0 15.0" Properties=species:S:1:pos:R:3:forces:R:3 energy=        0.8251563384 pbc="T T T"
       O    -0.0111315600     0.0037695700     0.0000000000      6.450516291     -9.208284746     -0.000000000
       H     1.0668438100     0.0414334200     0.0000000000     -4.112106169     -0.509100726     -0.000000000
       H    -0.1688632400     0.8276882600     0.0000000000     -2.338410173      9.717385473     -0.000000000
