       3
Lattice="15.0 0.0 0.0 0.0 15.0 0.0 0.0 0.0 15.0" Properties=species:S:1:pos:R:3:forces:R:3 energy=        1.4825426071 pbc="T T T"
       O     0.0131502900    -0.0060656000     0.0000000000    -17.516352523      4.681964817     -0.000000000
       H     0.8074630800    -0.0254102100     0.0000000000     15.918299260     -0.055661582     -0.000000000
       H    -0.2948545300     1.0506227700     0.0000000000      1.598053264     -4.626303236     -0.000000000
