       3
Lattice="15.0 0.0 0.0 0.0 15.0 0.0 0.0 0.0 15.0" Properties=species:S:1:pos:R:3:forces:R:3 energy=        1.7503756753 pbc="T T T"
       O    -0.0198872100    -0.0163896600     0.0000000000      5.102411500      5.376394347     -0.000000000
       H     1.2331721700     0.0837015700     0.0000000000     -5.778833425     -0.537097996     -0.000000000
       H    -0.1962316200     1.1053624300     0.0000000000      0.676421926     -4.839296351     -0.000000000
