       3
Lattice="15.0 0.0 0.0 0.0 15.0 0.0 0.0 0.0 15.0" Properties=species:S:1:pos:R:3:forces:R:3 energy=        1.6262575449 pbc="T T T"
       O     0.0054506900    -0.0135761800     0.0000000000     -0.187218770      4.635925183     -0.000000000
       H     1.0215375700    -0.0730885700     0.0000000000     -2.350962973      1.027132287     -0.000000000
       H    -0.3867319600     1.2175007900     0.0000000000      2.538181743     -5.663057469     -0.000000000
