       3
Lattice="15.0 0.0 0.0 0.0 15.0 0.0 0.0 0.0 15.0" Properties=species:S:1:pos:R:3:forces:R:3 energy=        8.3700086099 pbc="T T T"
       O     0.0029671000     0.0356324000     0.0000000000     40.675709444    -62.534920743     -0.000000000
       H     1.0082686400    -0.1872325500     0.0000000000     -3.839642228      2.204520787     -0.000000000
       H    -0.3340503000     0.5506686000     0.0000000000    -36.836067165     60.330399956     -0.000000000
