       3
Lattice="15.0 0.0 0.0 0.0 15.0 0.0 0.0 0.0 15.0" Properties=species:S:1:pos:R:3:forces:R:3 energy=        4.2764319061 pbc="T T T"
       O    -0.0240717800     0.0015786100     0.0000000000      4.782312296    -32.281395668     -0.000000000
       H     1.0833430000     0.1950003100     0.0000000000     -3.314964723     -2.917395470     -0.000000000
       H     0.0200122700     0.7088926100     0.0000000000     -1.467347573     35.198791138     -0.000000000
