       3
Lattice="15.0 0.0 0.0 0.0 15.0 0.0 0.0 0.0 15.0" Properties=species:S:1:pos:R:3:forces:R:3 energy=        0.7577268151 pbc="T T T"
       O    -0.0192262700    -0.0092325300     0.0000000000      5.796474492     -0.994911978     -0.000000000
       H     1.0864547400     0.1669336700     0.0000000000     -4.012768312     -2.009132692     -0.000000000
       H    -0.0600017900     0.9085403800     0.0000000000     -1.783706128      3.004044670     -0.000000000
