       3
Lattice="15.0 0.0 0.0 0.0 15.0 0.0 0.0 0.0 15.0" Properties=species:S:1:pos:R:3:forces:R:3 energy=        1.3500589675 pbc="T T T"
       O    -0.0087238800    -0.0310380500     0.0000000000     -0.102969131      6.578454033     -0.000000000
       H     0.9056578300     0.2466040800     0.0000000000      1.602291318     -1.689611216     -0.000000000
       H    -0.0458831000     1.1749386100     0.0000000000     -1.499322187     -4.888842817     -0.000000000
