       3
Lattice="15.0 0.0 0.0 0.0 15.0 0.0 0.0 0.0 15.0" Properties=species:S:1:pos:R:3:forces:R:3 energy=        3.0502493230 pbc="T T T"
       O     0.0309439200     0.0057813900     0.0000000000    -22.279076295      9.137682374     -0.000000000
       H     0.7672351000    -0.2507905700     0.0000000000     17.845399684     -3.810928648     -0.000000000
       H    -0.5370304200     1.0879838000     0.0000000000      4.433676559     -5.326753726     -0.000000000
