       3
Lattice="15.0 0.0 0.0 0.0 15.0 0.0 0.0 0.0 15.0" Properties=species:S:1:pos:R:3:forces:R:3 energy=        1.2941206818 pbc="T T T"
       O    -0.0083280500    -0.0002977900     0.0000000000      3.783216874      2.311721853     -0.000000000
       H     1.1965501300    -0.0810207900     0.0000000000     -5.858624718      1.172778870     -0.000000000
       H    -0.3430663300     1.0146957900     0.0000000000      2.075407844     -3.484500671     -0.000000000
