       3
Lattice="15.0 0.0 0.0 0.0 15.0 0.0 0.0 0.0 15.0" Properties=species:S:1:pos:R:3:forces:R:3 energy=        0.3547259190 pbc="T T T"
       O    -0.0042013100     0.0067374600     0.0000000000      4.637775761     -5.066320290     -0.000000000
       H     1.0464504700    -0.0374908100     0.0000000000     -3.742247714      0.528762270     -0.000000000
       H    -0.2584600900     0.8595103600     0.0000000000     -0.895528098      4.537558020     -0.000000000
