       3
Lattice="15.0 0.0 0.0 0.0 15.0 0.0 0.0 0.0 15.0" Properties=species:S:1:pos:R:3:forces:R:3 energy=        1.3799349849 pbc="T T T"
       O     0.0113102100     0.0169279600     0.0000000000      0.704141567     -0.015314012     -0.000000000
       H     1.0759058200    -0.2836375400     0.0000000000     -4.536169367      3.058408101     -0.000000000
       H    -0.5341009700     0.9439278600     0.0000000000      3.832027799     -3.043094089     -0.000000000
