       3
Lattice="15.0 0.0 0.0 0.0 15.0 0.0 0.0 0.0 15.0" Properties=species:S:1:pos:R:3:forces:R:3 energy=        0.8565484192 pbc="T T T"
       O    -0.0063869500    -0.0126150500     0.0000000000     -3.826792722     -0.651615551     -0.000000000
       H     0.8505804800     0.2025220500     0.0000000000      6.906879707     -1.585730629     -0.000000000
       H    -0.0278959600     0.9266339600     0.0000000000     -3.080086985      2.237346179     -0.000000000
