       3
Lattice="15.0 0.0 0.0 0.0 15.0 0.0 0.0 0.0 15.0" Properties=species:S:1:pos:R:3:forces:R:3 energy=        1.6835201353 pbc="T T T"
       O    -0.0071399000     0.0174243300     0.0000000000      6.331433021     -6.352093233     -0.000000000
       H     1.2286304100    -0.1764167700     0.0000000000     -6.176284201      2.174695153     -0.000000000
       H    -0.3940061900     0.8288292800     0.0000000000     -0.155148820      4.177398079     -0.000000000
