       3
Lattice="15.0 0.0 0.0 0.0 15.0 0.0 0.0 0.0 15.0" Properties=species:S:1:pos:R:3:forces:R:3 energy=        2.4632585072 pbc="T T T"
       O    -0.0401998600    -0.0199059600     0.0000000000      6.134303466      3.634578296     -0.000000000
       H     1.3598328600     0.2467592800     0.0000000000     -4.927956566     -1.762749108     -0.000000000
       H    -0.0005117100     0.9981106300     0.0000000000     -1.206346900     -1.871829137     -0.000000000
