       3
Lattice="15.0 0.0 0.0 0.0 15.0 0.0 0.0 0.0 15.0" Properties=species:S:1:pos:R:3:forces:R:3 energy=        5.5663403334 pbc="T T T"
       O     0.0194171800    -0.0080414800     0.0000000000    -51.505993743      4.125663963     -0.000000000
       H     0.6801568000     0.0024389000     0.0000000000     50.356866153      0.598247703     -0.000000000
       H    -0.2670076700     1.0541317400     0.0000000000      1.149127590     -4.723911665     -0.000000000
