       3
Lattice="15.0 0.0 0.0 0.0 15.0 0.0 0.0 0.0 15.0" Properties=species:S:1:pos:R:3:forces:R:3 energy=        1.7763232257 pbc="T T T"
       O    -0.0282583500    -0.0075851700     0.0000000000      6.571919983     -6.717290481     -0.000000000
       H     1.1737940900     0.2052330900     0.0000000000     -4.697297444     -2.342728291     -0.000000000
       H    -0.0039945600     0.8440962400     0.0000000000     -1.874622539      9.060018773     -0.000000000
