       3
Lattice="15.0 0.0 0.0 0.0 15.0 0.0 0.0 0.0 15.0" Properties=species:S:1:pos:R:3:forces:R:3 energy=        2.3635617550 pbc="T T T"
       O     0.0232948600     0.0033167600     0.0000000000     -4.291504206      2.802460626     -0.000000000
       H     0.9491488900    -0.2900178200     0.0000000000     -0.050629570      2.149682627     -0.000000000
       H    -0.5975489400     1.1663275300     0.0000000000      4.342133776     -4.952143253     -0.000000000
