       3
Lattice="15.0 0.0 0.0 0.0 15.0 0.0 0.0 0.0 15.0" Properties=species:S:1:pos:R:3:forces:R:3 energy=        2.3882627382 pbc="T T T"
       O    -0.0120968800     0.0193475000     0.0000000000      9.327897047    -12.549940206     -0.000000000
       H     1.2688493100    -0.1526177700     0.0000000000     -6.313764649      1.920678526     -0.000000000
       H    -0.3555536500     0.7745081800     0.0000000000     -3.014132398     10.629261681     -0.000000000
