       3
Lattice="15.0 0.0 0.0 0.0 15.0 0.0 0.0 0.0 15.0" Properties=species:S:1:pos:R:3:forces:R:3 energy=        0.7223433954 pbc="T T T"
       O     0.0093469700    -0.0060582900     0.0000000000     -7.283209632      4.517646617     -0.000000000
       H     0.8910003400    -0.0434298300     0.0000000000      5.320110969      0.357078112     -0.000000000
       H    -0.3180308700     1.0685268800     0.0000000000      1.963098663     -4.874724729     -0.000000000
