       3
Lattice="15.0 0.0 0.0 0.0 15.0 0.0 0.0 0.0 15.0" Properties=species:S:1:pos:R:3:forces:R:3 energy=        1.8538324560 pbc="T T T"
       O    -0.0262672200    -0.0116196100     0.0000000000      5.542801518      3.560227974     -0.000000000
       H     1.3072454000     0.0897788100     0.0000000000     -5.822953782     -0.547832048     -0.000000000
       H    -0.1690494200     1.0235812700     0.0000000000      0.280152264     -3.012395926     -0.000000000
