       3
Lattice="15.0 0.0 0.0 0.0 15.0 0.0 0.0 0.0 15.0" Properties=species:S:1:pos:R:3:forces:R:3 energy=        2.7181418209 pbc="T T T"
       O    -0.0023506600     0.0208097500     0.0000000000     13.643897193    -27.734872207     -0.000000000
       H     1.0386886700    -0.0986124400     0.0000000000     -3.985054584      1.246917385     -0.000000000
       H    -0.2800711200     0.6972946200     0.0000000000     -9.658842609     26.487954822     -0.000000000
