       3
Lattice="15.0 0.0 0.0 0.0 15.0 0.0 0.0 0.0 15.0" Properties=species:S:1:pos:R:3:forces:R:3 energy=        0.5497066836 pbc="T T T"
       O     0.0094236600    -0.0018739300     0.0000000000     -4.771930536      3.805375320     -0.000000000
       H     0.9244474300    -0.0835322400     0.0000000000      2.412343154      0.695804916     -0.000000000
       H    -0.3526961500     1.0422206700     0.0000000000      2.359587383     -4.501180236     -0.000000000
