       3
Lattice="15.0 0.0 0.0 0.0 15.0 0.0 0.0 0.0 15.0" Properties=species:S:1:pos:R:3:forces:R:3 energy=        2.6059072430 pbc="T T T"
       O    -0.0424120300    -0.0209269900     0.0000000000      6.094480144      3.618406770     -0.000000000
       H     1.3742727900     0.2660264100     0.0000000000     -4.759184544     -1.843187754     -0.000000000
       H     0.0201576800     0.9950479500     0.0000000000     -1.335295601     -1.775219016     -0.000000000
