       3
Lattice="15.0 0.0 0.0 0.0 15.0 0.0 0.0 0.0 15.0" Properties=species:S:1:pos:R:3:forces:R:3 energy=        1.2524577450 pbc="T T T"
       O     0.0140142600     0.0115679200     0.0000000000     -0.962503104      1.459861751     -0.000000000
       H     1.0203410300    -0.2569254300     0.0000000000     -3.071390944      2.619928567     -0.000000000
       H    -0.5214505700     1.0022831800     0.0000000000      4.033894049     -4.079790318     -0.000000000
