       3
Lattice="15.0 0.0 0.0 0.0 15.0 0.0 0.0 0.0 15.0" Properties=species:S:1:pos:R:3:forces:R:3 energy=        1.9651235389 pbc="T T T"
       O     0.0115307400    -0.0060929100     0.0000000000     -0.883890662      3.441290588     -0.000000000
       H     1.0255538900    -0.1747174500     0.0000000000     -2.551417943      1.889445675     -0.000000000
       H    -0.4872457400     1.2003651900     0.0000000000      3.435308606     -5.330736264     -0.000000000
