       3
Lattice="15.0 0.0 0.0 0.0 15.0 0.0 0.0 0.0 15.0" Properties=species:S:1:pos:R:3:forces:R:3 energy=        0.9785764620 pbc="T T T"
       O    -0.0175808200    -0.0051000400     0.0000000000      5.681566850      1.078471687     -0.000000000
       H     1.1926429100     0.0511761700     0.0000000000     -5.732840276     -0.333327639     -0.000000000
       H    -0.1923074500     0.9587133400     0.0000000000      0.051273426     -0.745144049     -0.000000000
