       3
Lattice="15.0 0.0 0.0 0.0 15.0 0.0 0.0 0.0 15.0" Properties=species:S:1:pos:R:3:forces:R:3 energy=        1.1651821470 pbc="T T T"
       O     0.0044899200    -0.0145404200     0.0000000000     -1.643802363      5.209740606     -0.000000000
       H     0.9732055000    -0.0206787500     0.0000000000     -0.343320956      0.516577086     -0.000000000
       H    -0.3231503900     1.1803936500     0.0000000000      1.987123319     -5.726317693     -0.000000000
