       3
Lattice="15.0 0.0 0.0 0.0 15.0 0.0 0.0 0.0 15.0" Properties=species:S:1:pos:R:3:forces:R:3 energy=        0.6136881951 pbc="T T T"
       O     0.0028325800    -0.0131265700     0.0000000000     -5.376264300      4.770156731     -0.000000000
       H     0.8909997700     0.0591258700     0.0000000000      4.840895423     -0.093497439     -0.000000000
       H    -0.2146395600     1.0781493900     0.0000000000      0.535368928     -4.676659292     -0.000000000
