       3
Lattice="15.0 0.0 0.0 0.0 15.0 0.0 0.0 0.0 15.0" Properties=species:S:1:pos:R:3:forces:R:3 energy=        1.9313332997 pbc="T T T"
       O    -0.0346392700    -0.0186715300     0.0000000000      6.491262176      3.094286937     -0.000000000
       H     1.2640279200     0.2487357700     0.0000000000     -4.955746501     -2.167402730     -0.000000000
       H     0.0070427700     0.9765423400     0.0000000000     -1.535515675     -0.926884207     -0.000000000
