       3
Lattice="15.0 0.0 0.0 0.0 15.0 0.0 0.0 0.0 15.0" Properties=species:S:1:pos:R:3:forces:R:3 energy=        0.7122093392 pbc="T T T"
       O    -0.0043810600    -0.0195213400     0.0000000000      0.029892688      5.883179845     -0.000000000
       H     0.9568906700     0.1170107500     0.0000000000     -0.061394990     -0.822414117     -0.000000000
       H    -0.1660431300     1.1217541600     0.0000000000      0.031502302     -5.060765728     -0.000000000
