       3
Lattice="15.0 0.0 0.0 0.0 15.0 0.0 0.0 0.0 15.0" Properties=species:S:1:pos:R:3:forces:R:3 energy=        1.8705914370 pbc="T T T"
       O    -0.0308036700    -0.0085053500     0.0000000000      6.278111041     -0.022827139     -0.000000000
       H     1.3187094100     0.1269709000     0.0000000000     -5.658364792     -0.946417350     -0.000000000
       H    -0.1085158100     0.9369633100     0.0000000000     -0.619746249      0.969244489     -0.000000000
