       3
Lattice="15.0 0.0 0.0 0.0 15.0 0.0 0.0 0.0 15.0" Properties=species:S:1:pos:R:3:forces:R:3 energy=        0.5746654920 pbc="T T T"
       O     0.0000943000     0.0102556700     0.0000000000      3.465622800     -1.809714392     -0.000000000
       H     1.0879968000    -0.1337773600     0.0000000000     -4.770209953      1.726601849     -0.000000000
       H    -0.3681833300     0.8999610100     0.0000000000      1.304587204      0.083112543     -0.000000000
