       3
Lattice="15.0 0.0 0.0 0.0 15.0 0.0 0.0 0.0 15.0" Properties=species:S:1:pos:R:3:forces:R:3 energy=        0.3856429733 pbc="T T T"
       O    -0.0011755900     0.0092366600     0.0000000000      4.018291302     -7.448469063     -0.000000000
       H     1.0024338300    -0.0484747500     0.0000000000     -2.322029461      0.542786719     -0.000000000
       H    -0.2624641200     0.8308299100     0.0000000000     -1.696261892      6.905682344     -0.000000000
