       3
Lattice="15.0 0.0 0.0 0.0 15.0 0.0 0.0 0.0 15.0" Properties=species:S:1:pos:R:3:forces:R:3 energy=        0.6292291401 pbc="T T T"
       O    -0.0018595200    -0.0168363900     0.0000000000     -1.080832835      5.521596695     -0.000000000
       H     0.9460562400     0.0858883400     0.0000000000      0.691916789     -0.489167160     -0.000000000
       H    -0.1952281200     1.1102645800     0.0000000000      0.388916046     -5.032429535     -0.000000000
