       3
Lattice="15.0 0.0 0.0 0.0 15.0 0.0 0.0 0.0 15.0" Properties=species:S:1:pos:R:3:forces:R:3 energy=        2.0373444431 pbc="T T T"
       O    -0.0019549300    -0.0354624400     0.0000000000     -5.518258322      5.280881264     -0.000000000
       H     0.8375038800     0.2300479300     0.0000000000      6.510447294      0.002346184     -0.000000000
       H    -0.0851576100     1.2617129400     0.0000000000     -0.992188921     -5.283227500     -0.000000000
