       3
Lattice="15.0 0.0 0.0 0.0 15.0 0.0 0.0 0.0 15.0" Properties=species:S:1:pos:R:3:forces:R:3 energy=        0.3527789525 pbc="T T T"
       O    -0.0055956100     0.0009499900     0.0000000000      2.575237168     -6.010665124     -0.000000000
       H     0.9662109700     0.0602365600     0.0000000000     -0.455180451     -0.828793336     -0.000000000
       H    -0.1560894700     0.8536334200     0.0000000000     -2.120056717      6.839458460     -0.000000000
