       3
Lattice="15.0 0.0 0.0 0.0 15.0 0.0 0.0 0.0 15.0" Properties=species:S:1:pos:R:3:forces:R:3 energy=        1.3804111923 pbc="T T T"
       O     0.0124200700     0.0137714000     0.0000000000    -10.451698179     -7.951250940     -0.000000000
       H     0.8149236500    -0.0847104300     0.0000000000     13.258297717     -0.984179160     -0.000000000
       H    -0.2907279300     0.7950954300     0.0000000000     -2.806599538      8.935430100     -0.000000000
