       3
Lattice="15.0 0.0 0.0 0.0 15.0 0.0 0.0 0.0 15.0" Properties=species:S:1:pos:R:3:forces:R:3 energy=        1.8755345921 pbc="T T T"
       O    -0.0258838400    -0.0010008900     0.0000000000      6.182807659     -2.073772313     -0.000000000
       H     1.3305541200     0.0334948100     0.0000000000     -5.978368248     -0.022822099     -0.000000000
       H    -0.1984443400     0.9113387200     0.0000000000     -0.204439359      2.096594413     -0.000000000
