       3
Lattice="15.0 0.0 0.0 0.0 15.0 0.0 0.0 0.0 15.0" Properties=species:S:1:pos:R:3:forces:R:3 energy=        2.1865660349 pbc="T T T"
       O     0.0189070900    -0.0072733500     0.0000000000     -5.919961704      4.123548869     -0.000000000
       H     0.9260637700    -0.1846475600     0.0000000000      2.398406174      1.236060485     -0.000000000
       H    -0.5048238500     1.2290295100     0.0000000000      3.521555530     -5.359609406     -0.000000000
