       3
Lattice="15.0 0.0 0.0 0.0 15.0 0.0 0.0 0.0 15.0" Properties=species:S:1:pos:R:3:forces:R:3 energy=        2.6105871334 pbc="T T T"
       O     0.0019961000     0.0166177900     0.0000000000      6.589025540    -27.870786389     -0.000000000
       H     0.9137711100    -0.0419717400     0.0000000000      2.393254966     -0.035610310     -0.000000000
       H    -0.2241383300     0.7071825100     0.0000000000     -8.982280507     27.906396699     -0.000000000
