       3
Lattice="15.0 0.0 0.0 0.0 15.0 0.0 0.0 0.0 15.0" Properties=species:S:1:pos:R:3:forces:R:3 energy=        1.8776262960 pbc="T T T"
       O    -0.0176887400     0.0085599200     0.0000000000      6.175534210     -4.357349058     -0.000000000
       H     1.3086105700    -0.0805877100     0.0000000000     -6.182913948      1.124530503     -0.000000000
       H    -0.3065659100     0.8736847100     0.0000000000      0.007379738      3.232818555     -0.000000000
