       3
Lattice="15.0 0.0 0.0 0.0 15.0 0.0 0.0 0.0 15.0" Properties=species:S:1:pos:R:3:forces:R:3 energy=        2.8930223782 pbc="T T T"
       O     0.0314155800     0.0079258800     0.0000000000    -21.174032963      8.943246308     -0.000000000
       H     0.7690486000    -0.2647687500     0.0000000000     16.639577238     -3.723576869     -0.000000000
       H    -0.5463298900     1.0679275200     0.0000000000      4.534455726     -5.219669440     -0.000000000
