       3
Lattice="15.0 0.0 0.0 0.0 15.0 0.0 0.0 0.0 15.0" Properties=species:S:1:pos:R:3:forces:R:3 energy=        1.2185614739 pbc="T T T"
       O    -0.0157337500    -0.0231100300     0.0000000000      4.620725482      6.553107264     -0.000000000
       H     1.0894606900     0.1652853800     0.0000000000     -4.283464774     -1.547360598     -0.000000000
       H    -0.1184364700     1.1304349300     0.0000000000     -0.337260708     -5.005746665     -0.000000000
