       3
Lattice="15.0 0.0 0.0 0.0 15.0 0.0 0.0 0.0 15.0" Properties=species:S:1:pos:R:3:forces:R:3 energy=        0.7383487898 pbc="T T T"
       O     0.0152177600     0.0093159800     0.0000000000     -3.841736032      2.211673702     -0.000000000
       H     0.9425373300    -0.2042451400     0.0000000000      0.379572910      1.594696635     -0.000000000
       H    -0.4627459100     0.9853422500     0.0000000000      3.462163122     -3.806370337     -0.000000000
