       3
Lattice="15.0 0.0 0.0 0.0 15.0 0.0 0.0 0.0 15.0" Properties=species:S:1:pos:R:3:forces:R:3 energy=        0.2002798119 pbc="T T T"
       O    -0.0070759400    -0.0078892400     0.0000000000      0.916794114      0.146583751     -0.000000000
       H     0.9431642600     0.1242288200     0.0000000000      0.727664859     -1.387922405     -0.000000000
       H    -0.1095469600     0.9299259400     0.0000000000     -1.644458972      1.241338654     -0.000000000
