       3
Lattice="15.0 0.0 0.0 0.0 15.0 0.0 0.0 0.0 15.0" Properties=species:S:1:pos:R:3:forces:R:3 energy=        1.2381226889 pbc="T T T"
       O    -0.0022671700     0.0048195400     0.0000000000     -0.133568409    -14.253463514     -0.000000000
       H     0.8954409100     0.0619786800     0.0000000000      4.208291081     -0.990806541     -0.000000000
       H    -0.1381441000     0.7904784000     0.0000000000     -4.074722672     15.244270055     -0.000000000
