       3
Lattice="15.0 0.0 0.0 0.0 15.0 0.0 0.0 0.0 15.0" Properties=species:S:1:pos:R:3:forces:R:3 energy=        0.2655214555 pbc="T T T"
       O    -0.0082006000    -0.0007891800     0.0000000000      4.315441805     -0.934672905     -0.000000000
       H     1.0620570100     0.0233938700     0.0000000000     -3.978204853     -0.170439846     -0.000000000
       H    -0.2105933100     0.9180786300     0.0000000000     -0.337237003      1.105112802     -0.000000000
