       3
Lattice="15.0 0.0 0.0 0.0 15.0 0.0 0.0 0.0 15.0" Properties=species:S:1:pos:R:3:forces:R:3 energy=        1.5528544040 pbc="T T T"
       O     0.0122058800     0.0122472400     0.0000000000      0.041608079      1.151392218     -0.000000000
       H     1.0663127100    -0.2724775100     0.0000000000     -4.187361932      2.917155226     -0.000000000
       H    -0.5387222800     1.0070542700     0.0000000000      4.145753852     -4.068547445     -0.000000000
