       3
Lattice="15.0 0.0 0.0 0.0 15.0 0.0 0.0 0.0 15.0" Properties=species:S:1:pos:R:3:forces:R:3 energy=        1.5731122251 pbc="T T T"
       O    -0.0013931400    -0.0166043500     0.0000000000    -11.663567554      0.244435201     -0.000000000
       H     0.7799251200     0.2084141000     0.0000000000     14.604652923      0.409974985     -0.000000000
       H    -0.0364957900     0.9840547600     0.0000000000     -2.941085369     -0.654410238     -0.000000000
