       3
Lattice="15.0 0.0 0.0 0.0 15.0 0.0 0.0 0.0 15.0" Properties=species:S:1:pos:R:3:forces:R:3 energy=        0.1403966154 pbc="T T T"
       O     0.0066302600     0.0065271600     0.0000000000     -3.363886668     -1.748106000     -0.000000000
       H     0.9079630800    -0.0627776100     0.0000000000      3.293783296      0.296166747     -0.000000000
       H    -0.2918781600     0.8881344100     0.0000000000      0.070103372      1.451939253     -0.000000000
