       3
Lattice="15.0 0.0 0.0 0.0 15.0 0.0 0.0 0.0 15.0" Properties=species:S:1:pos:R:3:forces:R:3 energy=        1.3745192007 pbc="T T T"
       O     0.0056120100     0.0168409700     0.0000000000      3.106365471    -16.983647876     -0.000000000
       H     0.9098304800    -0.0841774000     0.0000000000      2.583520341      0.337532885     -0.000000000
       H    -0.2775858500     0.7458464000     0.0000000000     -5.689885812     16.646114990     -0.000000000
