       3
Lattice="15.0 0.0 0.0 0.0 15.0 0.0 0.0 0.0 15.0" Properties=species:S:1:pos:R:3:forces:R:3 energy=        0.6740308449 pbc="T T T"
       O     0.0164131800     0.0224697000     0.0000000000     -2.393021201     -5.275118134     -0.000000000
       H     0.8866159500    -0.2170003700     0.0000000000      3.095235983      0.802330809     -0.000000000
       H    -0.4257972100     0.7893379300     0.0000000000     -0.702214782      4.472787376     -0.000000000
