       3
Lattice="15.0 0.0 0.0 0.0 15.0 0.0 0.0 0.0 15.0" Properties=species:S:1:pos:R:3:forces:R:3 energy=        1.3050542793 pbc="T T T"
       O    -0.0228676500    -0.0193280000     0.0000000000      5.843473560      5.345937918     -0.000000000
       H     1.1655660000     0.1821889000     0.0000000000     -5.068520744     -1.736547343     -0.000000000
       H    -0.0813211600     1.0535078800     0.0000000000     -0.774952764     -3.609390575     -0.000000000
