       3
Lattice="15.0 0.0 0.0 0.0 15.0 0.0 0.0 0.0 15.0" Properties=species:S:1:pos:R:3:forces:R:3 energy=        5.0555289736 pbc="T T T"
       O     0.0057648500     0.0349070100     0.0000000000     27.010964811    -40.176399020     -0.000000000
       H     1.0055732500    -0.2173332700     0.0000000000     -3.766810451      2.405393150     -0.000000000
       H    -0.3757579800     0.5922819900     0.0000000000    -23.244154360     37.771005870     -0.000000000
