       3
Lattice="15.0 0.0 0.0 0.0 15.0 0.0 0.0 0.0 15.0" Properties=species:S:1:pos:R:3:forces:R:3 energy=        1.4720548056 pbc="T T T"
       O    -0.0236615100    -0.0064643700     0.0000000000      6.339594735     -7.296865384     -0.000000000
       H     1.1131228100     0.1921626400     0.0000000000     -4.152981844     -2.415699679     -0.000000000
       H    -0.0162789000     0.8393785700     0.0000000000     -2.186612839      9.712565063     -0.000000000
