       3
Lattice="15.0 0.0 0.0 0.0 15.0 0.0 0.0 0.0 15.0" Properties=species:S:1:pos:R:3:forces:R:3 energy=        1.8779017922 pbc="T T T"
       O    -0.0113633200    -0.0352594500     0.0000000000      3.009033127      7.237897003     -0.000000000
       H     1.0088689500     0.2122883000     0.0000000000     -2.585378529     -1.692831576     -0.000000000
       H    -0.1072051200     1.2762517600     0.0000000000     -0.423654598     -5.545065427     -0.000000000
