       3
Lattice="15.0 0.0 0.0 0.0 15.0 0.0 0.0 0.0 15.0" Properties=species:S:1:pos:R:3:forces:R:3 energy=        2.3651508917 pbc="T T T"
       O     0.0244897400    -0.0011794000     0.0000000000    -15.839592150      6.405096858     -0.000000000
       H     0.8232894800    -0.1928434100     0.0000000000     11.977167263     -0.902193326     -0.000000000
       H    -0.4906505900     1.1405095100     0.0000000000      3.862424887     -5.502903532     -0.000000000
