       3
Lattice="15.0 0.0 0.0 0.0 15.0 0.0 0.0 0.0 15.0" Properties=species:S:1:pos:R:3:forces:R:3 energy=        1.7534619281 pbc="T T T"
       O    -0.0167859200    -0.0097564700     0.0000000000      1.682486274     -8.582554920     -0.000000000
       H     0.9261026700     0.2630268100     0.0000000000      1.952973191     -3.654821424     -0.000000000
       H     0.0616225600     0.8207613200     0.0000000000     -3.635459517     12.237376344     -0.000000000
