       3
Lattice="15.0 0.0 0.0 0.0 15.0 0.0 0.0 0.0 15.0" Properties=species:S:1:pos:R:3:forces:R:3 energy=        1.7197295865 pbc="T T T"
       O     0.0061361900     0.0056118400     0.0000000000      1.181444006      2.013677582     -0.000000000
       H     1.1201810000    -0.2185966700     0.0000000000     -4.949480720      2.514976292     -0.000000000
       H    -0.4962587100     1.0584819300     0.0000000000      3.768036714     -4.528653875     -0.000000000
