       3
Lattice="15.0 0.0 0.0 0.0 15.0 0.0 0.0 0.0 15.0" Properties=species:S:1:pos:R:3:forces:R:3 energy=        0.9875742714 pbc="T T T"
       O     0.0130360600     0.0137901600     0.0000000000     -0.596559927      0.760315159     -0.000000000
       H     1.0171314300    -0.2493800300     0.0000000000     -3.078535169      2.561773169     -0.000000000
       H    -0.5027161000     0.9594691400     0.0000000000      3.675095096     -3.322088379     -0.000000000
