       3
Lattice="15.0 0.0 0.0 0.0 15.0 0.0 0.0 0.0 15.0" Properties=species:S:1:pos:R:3:forces:R:3 energy=        0.8477969381 pbc="T T T"
       O    -0.0196540200    -0.0177076200     0.0000000000      4.789959480      2.729569405     -0.000000000
       H     1.0199329100     0.2505658700     0.0000000000     -2.245390496     -2.979023351     -0.000000000
       H     0.0133110200     0.9594133600     0.0000000000     -2.544568984      0.249453946     -0.000000000
