       3
Lattice="15.0 0.0 0.0 0.0 15.0 0.0 0.0 0.0 15.0" Properties=species:S:1:pos:R:3:forces:R:3 energy=        1.6449527767 pbc="T T T"
       O    -0.0128675200     0.0123246000     0.0000000000      7.870486895     -9.125392496     -0.000000000
       H     1.2230539700    -0.0854301700     0.0000000000     -6.225096926      1.235857625     -0.000000000
       H    -0.2975257900     0.8187785800     0.0000000000     -1.645389918      7.889534871     -0.000000000
