       3
Lattice="15.0 0.0 0.0 0.0 15.0 0.0 0.0 0.0 15.0" Properties=species:S:1:pos:R:3:forces:R:3 energy=        1.0515143236 pbc="T T T"
       O    -0.0024941700    -0.0166235600     0.0000000000      1.373596777      5.587097482     -0.000000000
       H     1.0267901700     0.0303473300     0.0000000000     -2.736915256      0.005603516     -0.000000000
       H    -0.2658911500     1.1624285000     0.0000000000      1.363318530     -5.592700998     -0.000000000
