       3
Lattice="15.0 0.0 0.0 0.0 15.0 0.0 0.0 0.0 15.0" Properties=species:S:1:pos:R:3:forces:R:3 energy=        1.0890402644 pbc="T T T"
       O     0.0152820500     0.0014509600     0.0000000000    -15.051054698      4.117783579     -0.000000000
       H     0.8234546500    -0.0877843700     0.0000000000     12.954343609     -0.477482879     -0.000000000
       H    -0.3446803800     0.9937040200     0.0000000000      2.096711141     -3.640300700     -0.000000000
