       3
Lattice="15.0 0.0 0.0 0.0 15.0 0.0 0.0 0.0 15.0" Properties=species:S:1:pos:R:3:forces:R:3 energy=        1.0983723385 pbc="T T T"
       O     0.0056221400    -0.0130651600     0.0000000000    -12.178495637      3.887360537     -0.000000000
       H     0.8236414500     0.0768592300     0.0000000000     12.128100243      0.372510292     -0.000000000
       H    -0.1915530300     1.0594410000     0.0000000000      0.050395343     -4.259870829     -0.000000000
