       3
Lattice="15.0 0.0 0.0 0.0 15.0 0.0 0.0 0.0 15.0" Properties=species:S:1:pos:R:3:forces:R:3 energy=        2.0005259412 pbc="T T T"
       O     0.0058717500     0.0290233700     0.0000000000     11.892576181    -18.423172654     -0.000000000
       H     1.0362923700    -0.2239656300     0.0000000000     -4.316739904      2.558249265     -0.000000000
       H    -0.4081738300     0.6922922400     0.0000000000     -7.575836277     15.864923390     -0.000000000
