       3
Lattice="15.0 0.0 0.0 0.0 15.0 0.0 0.0 0.0 15.0" Properties=species:S:1:pos:R:3:forces:R:3 energy=        1.4114590708 pbc="T T T"
       O    -0.0144658700    -0.0119380900     0.0000000000      0.653983126     -5.000755638     -0.000000000
       H     0.8987071300     0.2625820700     0.0000000000      3.233025375     -3.329975396     -0.000000000
       H     0.0521972600     0.8558299300     0.0000000000     -3.887008501      8.330731033     -0.000000000
