       3
Lattice="15.0 0.0 0.0 0.0 15.0 0.0 0.0 0.0 15.0" Properties=species:S:1:pos:R:3:forces:R:3 energy=        4.3435844284 pbc="T T T"
       O    -0.0047195300     0.0278027600     0.0000000000     21.008126386    -34.900134739     -0.000000000
       H     1.1284851300    -0.1611824700     0.0000000000     -5.920198760      2.176765664     -0.000000000
       H    -0.3322736600     0.6488810200     0.0000000000    -15.087927626     32.723369076     -0.000000000
