       3
Lattice="15.0 0.0 0.0 0.0 15.0 0.0 0.0 0.0 15.0" Properties=species:S:1:pos:R:3:forces:R:3 energy=        2.3502342440 pbc="T T T"
       O     0.0199030100    -0.0060367600     0.0000000000     -4.945608997      3.655659604     -0.000000000
       H     0.9407718700    -0.2122390300     0.0000000000      1.278612057      1.534280722     -0.000000000
       H    -0.5353387800     1.2369955800     0.0000000000      3.666996940     -5.189940326     -0.000000000
