       3
Lattice="15.0 0.0 0.0 0.0 15.0 0.0 0.0 0.0 15.0" Properties=species:S:1:pos:R:3:forces:R:3 energy=        3.2745641168 pbc="T T T"
       O    -0.0174277400     0.0105541300     0.0000000000     11.277165379    -28.222113609     -0.000000000
       H     1.1486927800     0.0340918200     0.0000000000     -5.547487562     -0.364693569     -0.000000000
       H    -0.1507875700     0.7273541800     0.0000000000     -5.729677818     28.586807178     -0.000000000
