       3
Lattice="15.0 0.0 0.0 0.0 15.0 0.0 0.0 0.0 15.0" Properties=species:S:1:pos:R:3:forces:R:3 energy=        1.6295795436 pbc="T T T"
       O    -0.0044156200    -0.0240919400     0.0000000000     -7.952887037      2.618298538     -0.000000000
       H     0.7907876400     0.2608214500     0.0000000000     11.018555885     -0.179435472     -0.000000000
       H     0.0006121800     1.0504807100     0.0000000000     -3.065668849     -2.438863067     -0.000000000
