       3
Lattice="15.0 0.0 0.0 0.0 15.0 0.0 0.0 0.0 15.0" Properties=species:S:1:pos:R:3:forces:R:3 energy=        1.3544575928 pbc="T T T"
       O    -0.0031770300    -0.0145329100     0.0000000000      2.337634677      5.162713102     -0.000000000
       H     1.0813991900    -0.0102298900     0.0000000000     -4.194754988      0.430709348     -0.000000000
       H    -0.3096637500     1.1698259700     0.0000000000      1.857120311     -5.593422450     -0.000000000
