       3
Lattice="15.0 0.0 0.0 0.0 15.0 0.0 0.0 0.0 15.0" Properties=species:S:1:pos:R:3:forces:R:3 energy=        1.3106027571 pbc="T T T"
       O    -0.0100982800    -0.0211166000     0.0000000000     -2.738202351      1.931108622     -0.000000000
       H     0.8353985900     0.2868378100     0.0000000000      6.618144377     -2.188006686     -0.000000000
       H     0.0461897700     0.9772434900     0.0000000000     -3.879942026      0.256898064     -0.000000000
