       3
Lattice="15.0 0.0 0.0 0.0 15.0 0.0 0.0 0.0 15.0" Properties=species:S:1:pos:R:3:forces:R:3 energy=        1.0403476007 pbc="T T T"
       O     0.0011243100    -0.0145193500     0.0000000000      0.058349671      5.278520116     -0.000000000
       H     1.0033397300    -0.0026672900     0.0000000000     -1.808867984      0.344811785     -0.000000000
       H    -0.2998694500     1.1620477700     0.0000000000      1.750518365     -5.623331901     -0.000000000
